Initialize SIGNATURE TABLE
ST_SET: 1
ST_WAY: 256
ST_TAG_BIT: 16
ST_TAG_MASK: ffff

Initialize PATTERN TABLE
PT_SET: 512
PT_WAY: 4
SIG_DELTA_BIT: 7
C_SIG_BIT: 4
C_DELTA_BIT: 4

Initialize PREFETCH FILTER
FILTER_SET: 1024
MANA initialize 
tds: 2 tdm: 4
size MANA SINGLE: 74 KB
size MANA NULTIPLE: 43 KB
size HOBPT: 5 KB
size SRQ: 0.14502 KB
size SABs: 0.290039 KB
size prefetch queue: 0.453125 KB
total: 122.888 KB

*** ChampSim Multicore Out-of-Order Simulator ***

Warmup Instructions: 50000000
Simulation Instructions: 50000000
Number of CPUs: 1
LLC sets: 2048
LLC ways: 16
Off-chip DRAM Size: 4096 MB Channels: 1 Width: 64-bit Data Rate: 3200 MT/s

CPU 0 runs /home/mbaradaran/ChampSim/dpc3_traces/server_038.champsimtrace.xz
CPU 0 L1D next line prefetcher
Heartbeat CPU 0 instructions: 10000001 cycles: 3320826 heartbeat IPC: 3.0113 cumulative IPC: 3.0113 (Simulation time: 0 hr 1 min 26 sec) 
Heartbeat CPU 0 instructions: 20000003 cycles: 6644767 heartbeat IPC: 3.00848 cumulative IPC: 3.00989 (Simulation time: 0 hr 2 min 51 sec) 
Heartbeat CPU 0 instructions: 30000003 cycles: 9964727 heartbeat IPC: 3.01208 cumulative IPC: 3.01062 (Simulation time: 0 hr 4 min 12 sec) 
Heartbeat CPU 0 instructions: 40000001 cycles: 13288817 heartbeat IPC: 3.00834 cumulative IPC: 3.01005 (Simulation time: 0 hr 5 min 36 sec) 
Heartbeat CPU 0 instructions: 50000001 cycles: 16611074 heartbeat IPC: 3.01 cumulative IPC: 3.01004 (Simulation time: 0 hr 7 min 3 sec) 

Warmup complete CPU 0 instructions: 50000001 cycles: 16611074 (Simulation time: 0 hr 7 min 3 sec) 

Heartbeat CPU 0 instructions: 60000002 cycles: 23066812 heartbeat IPC: 1.54901 cumulative IPC: 1.54901 (Simulation time: 0 hr 8 min 28 sec) 
Heartbeat CPU 0 instructions: 70000001 cycles: 29473651 heartbeat IPC: 1.56083 cumulative IPC: 1.5549 (Simulation time: 0 hr 9 min 50 sec) 
Heartbeat CPU 0 instructions: 80000000 cycles: 35897844 heartbeat IPC: 1.55662 cumulative IPC: 1.55547 (Simulation time: 0 hr 11 min 11 sec) 
Heartbeat CPU 0 instructions: 90000001 cycles: 42326691 heartbeat IPC: 1.55549 cumulative IPC: 1.55547 (Simulation time: 0 hr 12 min 31 sec) 
*** Reached end of trace for Core: 0 Repeating trace: /home/mbaradaran/ChampSim/dpc3_traces/server_038.champsimtrace.xz
Heartbeat CPU 0 instructions: 100000002 cycles: 48779549 heartbeat IPC: 1.5497 cumulative IPC: 1.55432 (Simulation time: 0 hr 13 min 49 sec) 
Finished CPU 0 instructions: 50000001 cycles: 32168475 cumulative IPC: 1.55432 (Simulation time: 0 hr 13 min 49 sec) 

ChampSim completed all CPUs

Region of Interest Statistics

CPU 0 cumulative IPC: 1.55432 instructions: 50000001 cycles: 32168475

SHEET
IPC : 1.55432

L1D TOTAL     ACCESS:   18726203  HIT:   17743830  MISS:     982373
L1D LOAD      ACCESS:    6376908  HIT:    5883798  MISS:     493110
L1D RFO       ACCESS:    6210527  HIT:    6146163  MISS:      64364
L1D PREFETCH  ACCESS:    6138768  HIT:    5713869  MISS:     424899
L1D WRITEBACK ACCESS:          0  HIT:          0  MISS:          0
L1D PREFETCH  REQUESTED:    6412551  ISSUED:    6260150  USEFUL:     118138  USELESS:     306764
L1D AVERAGE MISS LATENCY: 29.1638 cycles
L1D

SHEET
L1D-total_access : 18726203
L1D-total_hit : 17743830
L1D-total_miss : 982373
L1D-load_access : 6376908
L1D-load_hit : 5883798
L1D-load_miss : 493110
L1D-rfo_access : 6210527
L1D-rfo_hit : 6146163
L1D-rfo_miss : 64364
L1D-prefetch_access : 6138768
L1D-prefetch_hit : 5713869
L1D-prefetch_miss : 424899
L1D-writeback_access : 0
L1D-writeback_hit : 0
L1D-writeback_miss : 0
L1D-prefetch_requested : 6412551
L1D-prefetch_issued : 6260150
L1D-prefetch_useful : 118138
L1D-prefetch_useless : 306764
L1D-Avg_miss_latency : 29.1638
L1D-Morteza_fill_l2_prefetches : 0

L1I TOTAL     ACCESS:   15153357  HIT:   11043819  MISS:    4109538
L1I LOAD      ACCESS:    9266434  HIT:    8657679  MISS:     608755
L1I RFO       ACCESS:          0  HIT:          0  MISS:          0
L1I PREFETCH  ACCESS:    5886923  HIT:    2386140  MISS:    3500783
L1I WRITEBACK ACCESS:          0  HIT:          0  MISS:          0
L1I PREFETCH  REQUESTED:    6462239  ISSUED:    6462239  USEFUL:    3343736  USELESS:     157070
L1I AVERAGE MISS LATENCY: 13.4854 cycles
L1I

SHEET
L1I-total_access : 15153357
L1I-total_hit : 11043819
L1I-total_miss : 4109538
L1I-load_access : 9266434
L1I-load_hit : 8657679
L1I-load_miss : 608755
L1I-rfo_access : 0
L1I-rfo_hit : 0
L1I-rfo_miss : 0
L1I-prefetch_access : 5886923
L1I-prefetch_hit : 2386140
L1I-prefetch_miss : 3500783
L1I-writeback_access : 0
L1I-writeback_hit : 0
L1I-writeback_miss : 0
L1I-prefetch_requested : 6462239
L1I-prefetch_issued : 6462239
L1I-prefetch_useful : 3343736
L1I-prefetch_useless : 157070
L1I-Avg_miss_latency : 13.4854
L1I-Morteza_fill_l2_prefetches : 0

L2C TOTAL     ACCESS:    7406428  HIT:    7102188  MISS:     304240
L2C LOAD      ACCESS:     653154  HIT:     517933  MISS:     135221
L2C RFO       ACCESS:      64112  HIT:      36937  MISS:      27175
L2C PREFETCH  ACCESS:    6397525  HIT:    6256299  MISS:     141226
L2C WRITEBACK ACCESS:     291637  HIT:     291019  MISS:        618
L2C PREFETCH  REQUESTED:    6813215  ISSUED:    6795720  USEFUL:       6698  USELESS:     134374
L2C AVERAGE MISS LATENCY: 47.2186 cycles
L2C

SHEET
L2C-total_access : 7406428
L2C-total_hit : 7102188
L2C-total_miss : 304240
L2C-load_access : 653154
L2C-load_hit : 517933
L2C-load_miss : 135221
L2C-rfo_access : 64112
L2C-rfo_hit : 36937
L2C-rfo_miss : 27175
L2C-prefetch_access : 6397525
L2C-prefetch_hit : 6256299
L2C-prefetch_miss : 141226
L2C-writeback_access : 291637
L2C-writeback_hit : 291019
L2C-writeback_miss : 618
L2C-prefetch_requested : 6813215
L2C-prefetch_issued : 6795720
L2C-prefetch_useful : 6698
L2C-prefetch_useless : 134374
L2C-Avg_miss_latency : 47.2186
L2C-Morteza_fill_l2_prefetches : 2041245

LLC TOTAL     ACCESS:    1906499  HIT:    1843625  MISS:      62874
LLC LOAD      ACCESS:     135200  HIT:     122164  MISS:      13036
LLC RFO       ACCESS:      27174  HIT:      21789  MISS:       5385
LLC PREFETCH  ACCESS:    1607080  HIT:    1563268  MISS:      43812
LLC WRITEBACK ACCESS:     137045  HIT:     136404  MISS:        641
LLC PREFETCH  REQUESTED:          0  ISSUED:          0  USEFUL:       3362  USELESS:      39258
LLC AVERAGE MISS LATENCY: 174.527 cycles
LLC

SHEET
LLC-total_access : 1906499
LLC-total_hit : 1843625
LLC-total_miss : 62874
LLC-load_access : 135200
LLC-load_hit : 122164
LLC-load_miss : 13036
LLC-rfo_access : 27174
LLC-rfo_hit : 21789
LLC-rfo_miss : 5385
LLC-prefetch_access : 1607080
LLC-prefetch_hit : 1563268
LLC-prefetch_miss : 43812
LLC-writeback_access : 137045
LLC-writeback_hit : 136404
LLC-writeback_miss : 641
LLC-prefetch_requested : 0
LLC-prefetch_issued : 0
LLC-prefetch_useful : 3362
LLC-prefetch_useless : 39258
LLC-Avg_miss_latency : 174.527
LLC-Morteza_fill_l2_prefetches : 1441442

Major fault: 0 Minor fault: 5579



Printing Logs
statHeadFound: 303317
statHeadMissing: 352319
statStreamBufferHit: 13875532
statPrefetchEntryFound: 4119653
statCompactorMatch: 11285166
statStreamTrackerLookup: 14531168
statRecord: 3246002
statGetPointer: 655636
statEnqueuePrefetch: 12969016
statPrefetchQueueIsFull: 0
StreamBufferHitRate: 0.954881
Regions' size: 914
next_region_correct: 2584937
next_region_wrong: 660133
next_region_correct_prediction: 0.796574
statStreamBufferLookups: 1046244096
statL1iLookups: 103752128
statCompactorLookups: 523122048
morteza: start

SHEET
mana_table_access_counter : 5214937
mana_table_multiple_access_counter : 2455235
hobp_table_access_counter : 22350722
sab_access_counter : 17995185
srq_access_counter : 16705471

morteza: end
CPU 0 L1D next line prefetcher final stats

DRAM Statistics
 CHANNEL 0
 RQ ROW_BUFFER_HIT:      13783  ROW_BUFFER_MISS:      48448
 DBUS_CONGESTED:      26283
 WQ ROW_BUFFER_HIT:       1314  ROW_BUFFER_MISS:      12286  FULL:          0

 AVG_CONGESTED_CYCLE: 5

CPU 0 Branch Prediction Accuracy: 99.9279% MPKI: 0.12968 Average ROB Occupancy at Mispredict: 213.159

Branch types
NOT_BRANCH: 41006333 82.0127%
BRANCH_DIRECT_JUMP: 541914 1.08383%
BRANCH_INDIRECT: 59690 0.11938%
BRANCH_CONDITIONAL: 5915848 11.8317%
BRANCH_DIRECT_CALL: 1003589 2.00718%
BRANCH_INDIRECT_CALL: 234499 0.468998%
BRANCH_RETURN: 1238071 2.47614%
BRANCH_OTHER: 0 0%

