Initialize SIGNATURE TABLE
ST_SET: 1
ST_WAY: 256
ST_TAG_BIT: 16
ST_TAG_MASK: ffff

Initialize PATTERN TABLE
PT_SET: 512
PT_WAY: 4
SIG_DELTA_BIT: 7
C_SIG_BIT: 4
C_DELTA_BIT: 4

Initialize PREFETCH FILTER
FILTER_SET: 1024
MANA initialize 
tds: 2 tdm: 4
size MANA SINGLE: 74 KB
size MANA NULTIPLE: 43 KB
size HOBPT: 5 KB
size SRQ: 0.14502 KB
size SABs: 0.290039 KB
size prefetch queue: 0.453125 KB
total: 122.888 KB

*** ChampSim Multicore Out-of-Order Simulator ***

Warmup Instructions: 50000000
Simulation Instructions: 50000000
Number of CPUs: 1
LLC sets: 2048
LLC ways: 16
Off-chip DRAM Size: 4096 MB Channels: 1 Width: 64-bit Data Rate: 3200 MT/s

CPU 0 runs /home/mbaradaran/ChampSim/dpc3_traces/server_027.champsimtrace.xz
CPU 0 L1D next line prefetcher
Heartbeat CPU 0 instructions: 10000001 cycles: 3527762 heartbeat IPC: 2.83466 cumulative IPC: 2.83466 (Simulation time: 0 hr 1 min 22 sec) 
Heartbeat CPU 0 instructions: 20000001 cycles: 7060071 heartbeat IPC: 2.83101 cumulative IPC: 2.83283 (Simulation time: 0 hr 2 min 41 sec) 
Heartbeat CPU 0 instructions: 30000002 cycles: 10587579 heartbeat IPC: 2.83486 cumulative IPC: 2.83351 (Simulation time: 0 hr 3 min 59 sec) 
Heartbeat CPU 0 instructions: 40000000 cycles: 14120382 heartbeat IPC: 2.83061 cumulative IPC: 2.83278 (Simulation time: 0 hr 5 min 16 sec) 
Heartbeat CPU 0 instructions: 50000001 cycles: 17646395 heartbeat IPC: 2.83606 cumulative IPC: 2.83344 (Simulation time: 0 hr 6 min 38 sec) 

Warmup complete CPU 0 instructions: 50000001 cycles: 17646395 (Simulation time: 0 hr 6 min 38 sec) 

Heartbeat CPU 0 instructions: 60000002 cycles: 24900463 heartbeat IPC: 1.37854 cumulative IPC: 1.37854 (Simulation time: 0 hr 7 min 54 sec) 
Heartbeat CPU 0 instructions: 70000003 cycles: 32083697 heartbeat IPC: 1.39213 cumulative IPC: 1.3853 (Simulation time: 0 hr 9 min 15 sec) 
Heartbeat CPU 0 instructions: 80000002 cycles: 39299501 heartbeat IPC: 1.38585 cumulative IPC: 1.38548 (Simulation time: 0 hr 10 min 32 sec) 
Heartbeat CPU 0 instructions: 90000001 cycles: 46570183 heartbeat IPC: 1.37539 cumulative IPC: 1.38294 (Simulation time: 0 hr 11 min 47 sec) 
Heartbeat CPU 0 instructions: 100000002 cycles: 53718523 heartbeat IPC: 1.39893 cumulative IPC: 1.38611 (Simulation time: 0 hr 13 min 7 sec) 
Finished CPU 0 instructions: 50000001 cycles: 36072128 cumulative IPC: 1.38611 (Simulation time: 0 hr 13 min 7 sec) 

ChampSim completed all CPUs

Region of Interest Statistics

CPU 0 cumulative IPC: 1.38611 instructions: 50000001 cycles: 36072128

SHEET
IPC : 1.38611

L1D TOTAL     ACCESS:   20385551  HIT:   18783224  MISS:    1602327
L1D LOAD      ACCESS:    7182960  HIT:    6493589  MISS:     689371
L1D RFO       ACCESS:    6302505  HIT:    6016125  MISS:     286380
L1D PREFETCH  ACCESS:    6900086  HIT:    6273510  MISS:     626576
L1D WRITEBACK ACCESS:          0  HIT:          0  MISS:          0
L1D PREFETCH  REQUESTED:    7228043  ISSUED:    7106210  USEFUL:     151712  USELESS:     474877
L1D AVERAGE MISS LATENCY: 23.3867 cycles
L1D

SHEET
L1D-total_access : 20385551
L1D-total_hit : 18783224
L1D-total_miss : 1602327
L1D-load_access : 7182960
L1D-load_hit : 6493589
L1D-load_miss : 689371
L1D-rfo_access : 6302505
L1D-rfo_hit : 6016125
L1D-rfo_miss : 286380
L1D-prefetch_access : 6900086
L1D-prefetch_hit : 6273510
L1D-prefetch_miss : 626576
L1D-writeback_access : 0
L1D-writeback_hit : 0
L1D-writeback_miss : 0
L1D-prefetch_requested : 7228043
L1D-prefetch_issued : 7106210
L1D-prefetch_useful : 151712
L1D-prefetch_useless : 474877
L1D-Avg_miss_latency : 23.3867
L1D-Morteza_fill_l2_prefetches : 0

L1I TOTAL     ACCESS:   15179322  HIT:   11340427  MISS:    3838895
L1I LOAD      ACCESS:    9232133  HIT:    8432302  MISS:     799831
L1I RFO       ACCESS:          0  HIT:          0  MISS:          0
L1I PREFETCH  ACCESS:    5947189  HIT:    2908125  MISS:    3039064
L1I WRITEBACK ACCESS:          0  HIT:          0  MISS:          0
L1I PREFETCH  REQUESTED:    6728773  ISSUED:    6724654  USEFUL:    2163091  USELESS:     875907
L1I AVERAGE MISS LATENCY: 16.5395 cycles
L1I

SHEET
L1I-total_access : 15179322
L1I-total_hit : 11340427
L1I-total_miss : 3838895
L1I-load_access : 9232133
L1I-load_hit : 8432302
L1I-load_miss : 799831
L1I-rfo_access : 0
L1I-rfo_hit : 0
L1I-rfo_miss : 0
L1I-prefetch_access : 5947189
L1I-prefetch_hit : 2908125
L1I-prefetch_miss : 3039064
L1I-writeback_access : 0
L1I-writeback_hit : 0
L1I-writeback_miss : 0
L1I-prefetch_requested : 6728773
L1I-prefetch_issued : 6724654
L1I-prefetch_useful : 2163091
L1I-prefetch_useless : 875907
L1I-Avg_miss_latency : 16.5395
L1I-Morteza_fill_l2_prefetches : 0

L2C TOTAL     ACCESS:    7363733  HIT:    6585751  MISS:     777982
L2C LOAD      ACCESS:    1112217  HIT:     935833  MISS:     176384
L2C RFO       ACCESS:     283902  HIT:     192816  MISS:      91086
L2C PREFETCH  ACCESS:    5408281  HIT:    4902401  MISS:     505880
L2C WRITEBACK ACCESS:     559333  HIT:     554701  MISS:       4632
L2C PREFETCH  REQUESTED:    6122495  ISSUED:    6112217  USEFUL:      35260  USELESS:     470054
L2C AVERAGE MISS LATENCY: 38.7172 cycles
L2C

SHEET
L2C-total_access : 7363733
L2C-total_hit : 6585751
L2C-total_miss : 777982
L2C-load_access : 1112217
L2C-load_hit : 935833
L2C-load_miss : 176384
L2C-rfo_access : 283902
L2C-rfo_hit : 192816
L2C-rfo_miss : 91086
L2C-prefetch_access : 5408281
L2C-prefetch_hit : 4902401
L2C-prefetch_miss : 505880
L2C-writeback_access : 559333
L2C-writeback_hit : 554701
L2C-writeback_miss : 4632
L2C-prefetch_requested : 6122495
L2C-prefetch_issued : 6112217
L2C-prefetch_useful : 35260
L2C-prefetch_useless : 470054
L2C-Avg_miss_latency : 38.7172
L2C-Morteza_fill_l2_prefetches : 1392806

LLC TOTAL     ACCESS:    2786375  HIT:    2751261  MISS:      35114
LLC LOAD      ACCESS:     176296  HIT:     172682  MISS:       3614
LLC RFO       ACCESS:      91084  HIT:      77237  MISS:      13847
LLC PREFETCH  ACCESS:    2369295  HIT:    2351836  MISS:      17459
LLC WRITEBACK ACCESS:     149700  HIT:     149506  MISS:        194
LLC PREFETCH  REQUESTED:          0  ISSUED:          0  USEFUL:       1433  USELESS:      14462
LLC AVERAGE MISS LATENCY: 185.694 cycles
LLC

SHEET
LLC-total_access : 2786375
LLC-total_hit : 2751261
LLC-total_miss : 35114
LLC-load_access : 176296
LLC-load_hit : 172682
LLC-load_miss : 3614
LLC-rfo_access : 91084
LLC-rfo_hit : 77237
LLC-rfo_miss : 13847
LLC-prefetch_access : 2369295
LLC-prefetch_hit : 2351836
LLC-prefetch_miss : 17459
LLC-writeback_access : 149700
LLC-writeback_hit : 149506
LLC-writeback_miss : 194
LLC-prefetch_requested : 0
LLC-prefetch_issued : 0
LLC-prefetch_useful : 1433
LLC-prefetch_useless : 14462
LLC-Avg_miss_latency : 185.694
LLC-Morteza_fill_l2_prefetches : 1867149

Major fault: 0 Minor fault: 2539



Printing Logs
statHeadFound: 756373
statHeadMissing: 788149
statStreamBufferHit: 12673950
statPrefetchEntryFound: 4519825
statCompactorMatch: 11678925
statStreamTrackerLookup: 14218472
statRecord: 2539547
statGetPointer: 1544522
statEnqueuePrefetch: 13417634
statPrefetchQueueIsFull: 0
StreamBufferHitRate: 0.891372
Regions' size: 2287
next_region_correct: 1704733
next_region_wrong: 832509
next_region_correct_prediction: 0.671884
statStreamBufferLookups: 1023729984
statL1iLookups: 107341072
statCompactorLookups: 511864992
morteza: start

SHEET
mana_table_access_counter : 4202853
mana_table_multiple_access_counter : 3616480
hobp_table_access_counter : 27040159
sab_access_counter : 17193775
srq_access_counter : 15406378

morteza: end
CPU 0 L1D next line prefetcher final stats

DRAM Statistics
 CHANNEL 0
 RQ ROW_BUFFER_HIT:      11424  ROW_BUFFER_MISS:      23495
 DBUS_CONGESTED:      24393
 WQ ROW_BUFFER_HIT:       1772  ROW_BUFFER_MISS:      15361  FULL:          0

 AVG_CONGESTED_CYCLE: 6

CPU 0 Branch Prediction Accuracy: 99.8082% MPKI: 0.35064 Average ROB Occupancy at Mispredict: 151.541

Branch types
NOT_BRANCH: 40857312 81.7146%
BRANCH_DIRECT_JUMP: 526632 1.05326%
BRANCH_INDIRECT: 205902 0.411804%
BRANCH_CONDITIONAL: 6184026 12.3681%
BRANCH_DIRECT_CALL: 938463 1.87693%
BRANCH_INDIRECT_CALL: 174486 0.348972%
BRANCH_RETURN: 1112955 2.22591%
BRANCH_OTHER: 0 0%

