Initialize SIGNATURE TABLE
ST_SET: 1
ST_WAY: 256
ST_TAG_BIT: 16
ST_TAG_MASK: ffff

Initialize PATTERN TABLE
PT_SET: 512
PT_WAY: 4
SIG_DELTA_BIT: 7
C_SIG_BIT: 4
C_DELTA_BIT: 4

Initialize PREFETCH FILTER
FILTER_SET: 1024
MANA initialize 
tds: 2 tdm: 4
size MANA SINGLE: 74 KB
size MANA NULTIPLE: 43 KB
size HOBPT: 5 KB
size SRQ: 0.14502 KB
size SABs: 0.290039 KB
size prefetch queue: 0.453125 KB
total: 122.888 KB

*** ChampSim Multicore Out-of-Order Simulator ***

Warmup Instructions: 50000000
Simulation Instructions: 50000000
Number of CPUs: 1
LLC sets: 2048
LLC ways: 16
Off-chip DRAM Size: 4096 MB Channels: 1 Width: 64-bit Data Rate: 3200 MT/s

CPU 0 runs /home/mbaradaran/ChampSim/dpc3_traces/server_026.champsimtrace.xz
CPU 0 L1D next line prefetcher
Heartbeat CPU 0 instructions: 10000000 cycles: 3525910 heartbeat IPC: 2.83615 cumulative IPC: 2.83615 (Simulation time: 0 hr 1 min 24 sec) 
Heartbeat CPU 0 instructions: 20000002 cycles: 7057911 heartbeat IPC: 2.83126 cumulative IPC: 2.8337 (Simulation time: 0 hr 2 min 46 sec) 
Heartbeat CPU 0 instructions: 30000000 cycles: 10579581 heartbeat IPC: 2.83956 cumulative IPC: 2.83565 (Simulation time: 0 hr 4 min 4 sec) 
Heartbeat CPU 0 instructions: 40000003 cycles: 14109881 heartbeat IPC: 2.83262 cumulative IPC: 2.83489 (Simulation time: 0 hr 5 min 23 sec) 
Heartbeat CPU 0 instructions: 50000000 cycles: 17633439 heartbeat IPC: 2.83804 cumulative IPC: 2.83552 (Simulation time: 0 hr 6 min 48 sec) 

Warmup complete CPU 0 instructions: 50000004 cycles: 17633440 (Simulation time: 0 hr 6 min 48 sec) 

*** Reached end of trace for Core: 0 Repeating trace: /home/mbaradaran/ChampSim/dpc3_traces/server_026.champsimtrace.xz
Heartbeat CPU 0 instructions: 60000000 cycles: 24936210 heartbeat IPC: 1.36934 cumulative IPC: 1.36934 (Simulation time: 0 hr 8 min 9 sec) 
Heartbeat CPU 0 instructions: 70000003 cycles: 32117652 heartbeat IPC: 1.39248 cumulative IPC: 1.38081 (Simulation time: 0 hr 9 min 25 sec) 
Heartbeat CPU 0 instructions: 80000003 cycles: 39408811 heartbeat IPC: 1.37152 cumulative IPC: 1.3777 (Simulation time: 0 hr 10 min 42 sec) 
Heartbeat CPU 0 instructions: 90000002 cycles: 46590749 heartbeat IPC: 1.39238 cumulative IPC: 1.38134 (Simulation time: 0 hr 11 min 58 sec) 
Heartbeat CPU 0 instructions: 100000000 cycles: 53859358 heartbeat IPC: 1.37578 cumulative IPC: 1.38023 (Simulation time: 0 hr 13 min 20 sec) 
Finished CPU 0 instructions: 50000000 cycles: 36225919 cumulative IPC: 1.38023 (Simulation time: 0 hr 13 min 20 sec) 

ChampSim completed all CPUs

Region of Interest Statistics

CPU 0 cumulative IPC: 1.38023 instructions: 50000000 cycles: 36225919

SHEET
IPC : 1.38023

L1D TOTAL     ACCESS:   20197828  HIT:   18552463  MISS:    1645365
L1D LOAD      ACCESS:    7137437  HIT:    6409392  MISS:     728045
L1D RFO       ACCESS:    6255142  HIT:    5968277  MISS:     286865
L1D PREFETCH  ACCESS:    6805249  HIT:    6174794  MISS:     630455
L1D WRITEBACK ACCESS:          0  HIT:          0  MISS:          0
L1D PREFETCH  REQUESTED:    7184046  ISSUED:    7047342  USEFUL:     152814  USELESS:     477649
L1D AVERAGE MISS LATENCY: 23.7027 cycles
L1D

SHEET
L1D-total_access : 20197828
L1D-total_hit : 18552463
L1D-total_miss : 1645365
L1D-load_access : 7137437
L1D-load_hit : 6409392
L1D-load_miss : 728045
L1D-rfo_access : 6255142
L1D-rfo_hit : 5968277
L1D-rfo_miss : 286865
L1D-prefetch_access : 6805249
L1D-prefetch_hit : 6174794
L1D-prefetch_miss : 630455
L1D-writeback_access : 0
L1D-writeback_hit : 0
L1D-writeback_miss : 0
L1D-prefetch_requested : 7184046
L1D-prefetch_issued : 7047342
L1D-prefetch_useful : 152814
L1D-prefetch_useless : 477649
L1D-Avg_miss_latency : 23.7027
L1D-Morteza_fill_l2_prefetches : 0

L1I TOTAL     ACCESS:   15195284  HIT:   11425587  MISS:    3769697
L1I LOAD      ACCESS:    9266041  HIT:    8498279  MISS:     767762
L1I RFO       ACCESS:          0  HIT:          0  MISS:          0
L1I PREFETCH  ACCESS:    5929243  HIT:    2927308  MISS:    3001935
L1I WRITEBACK ACCESS:          0  HIT:          0  MISS:          0
L1I PREFETCH  REQUESTED:    6678402  ISSUED:    6674426  USEFUL:    2139257  USELESS:     862715
L1I AVERAGE MISS LATENCY: 16.4465 cycles
L1I

SHEET
L1I-total_access : 15195284
L1I-total_hit : 11425587
L1I-total_miss : 3769697
L1I-load_access : 9266041
L1I-load_hit : 8498279
L1I-load_miss : 767762
L1I-rfo_access : 0
L1I-rfo_hit : 0
L1I-rfo_miss : 0
L1I-prefetch_access : 5929243
L1I-prefetch_hit : 2927308
L1I-prefetch_miss : 3001935
L1I-writeback_access : 0
L1I-writeback_hit : 0
L1I-writeback_miss : 0
L1I-prefetch_requested : 6678402
L1I-prefetch_issued : 6674426
L1I-prefetch_useful : 2139257
L1I-prefetch_useless : 862715
L1I-Avg_miss_latency : 16.4465
L1I-Morteza_fill_l2_prefetches : 0

L2C TOTAL     ACCESS:    7299458  HIT:    6508332  MISS:     791126
L2C LOAD      ACCESS:    1111062  HIT:     925097  MISS:     185965
L2C RFO       ACCESS:     284870  HIT:     188411  MISS:      96459
L2C PREFETCH  ACCESS:    5342406  HIT:    4837908  MISS:     504498
L2C WRITEBACK ACCESS:     561120  HIT:     556916  MISS:       4204
L2C PREFETCH  REQUESTED:    6016582  ISSUED:    6007646  USEFUL:      35424  USELESS:     468466
L2C AVERAGE MISS LATENCY: 39.3138 cycles
L2C

SHEET
L2C-total_access : 7299458
L2C-total_hit : 6508332
L2C-total_miss : 791126
L2C-load_access : 1111062
L2C-load_hit : 925097
L2C-load_miss : 185965
L2C-rfo_access : 284870
L2C-rfo_hit : 188411
L2C-rfo_miss : 96459
L2C-prefetch_access : 5342406
L2C-prefetch_hit : 4837908
L2C-prefetch_miss : 504498
L2C-writeback_access : 561120
L2C-writeback_hit : 556916
L2C-writeback_miss : 4204
L2C-prefetch_requested : 6016582
L2C-prefetch_issued : 6007646
L2C-prefetch_useful : 35424
L2C-prefetch_useless : 468466
L2C-Avg_miss_latency : 39.3138
L2C-Morteza_fill_l2_prefetches : 1360955

LLC TOTAL     ACCESS:    2588043  HIT:    2551224  MISS:      36819
LLC LOAD      ACCESS:     185806  HIT:     182077  MISS:       3729
LLC RFO       ACCESS:      96415  HIT:      81839  MISS:      14576
LLC PREFETCH  ACCESS:    2142450  HIT:    2124191  MISS:      18259
LLC WRITEBACK ACCESS:     163372  HIT:     163117  MISS:        255
LLC PREFETCH  REQUESTED:          0  ISSUED:          0  USEFUL:       1136  USELESS:      15850
LLC AVERAGE MISS LATENCY: 188.576 cycles
LLC

SHEET
LLC-total_access : 2588043
LLC-total_hit : 2551224
LLC-total_miss : 36819
LLC-load_access : 185806
LLC-load_hit : 182077
LLC-load_miss : 3729
LLC-rfo_access : 96415
LLC-rfo_hit : 81839
LLC-rfo_miss : 14576
LLC-prefetch_access : 2142450
LLC-prefetch_hit : 2124191
LLC-prefetch_miss : 18259
LLC-writeback_access : 163372
LLC-writeback_hit : 163117
LLC-writeback_miss : 255
LLC-prefetch_requested : 0
LLC-prefetch_issued : 0
LLC-prefetch_useful : 1136
LLC-prefetch_useless : 15850
LLC-Avg_miss_latency : 188.576
LLC-Morteza_fill_l2_prefetches : 1641481

Major fault: 0 Minor fault: 2227



Printing Logs
statHeadFound: 746673
statHeadMissing: 784441
statStreamBufferHit: 12689429
statPrefetchEntryFound: 4481641
statCompactorMatch: 11694905
statStreamTrackerLookup: 14220543
statRecord: 2525638
statGetPointer: 1531114
statEnqueuePrefetch: 13334536
statPrefetchQueueIsFull: 0
StreamBufferHitRate: 0.892331
Regions' size: 2110
next_region_correct: 1696536
next_region_wrong: 826974
next_region_correct_prediction: 0.672292
statStreamBufferLookups: 1023879096
statL1iLookups: 106676288
statCompactorLookups: 511939548
morteza: start

SHEET
mana_table_access_counter : 4190031
mana_table_multiple_access_counter : 3567107
hobp_table_access_counter : 26838405
sab_access_counter : 17171070
srq_access_counter : 15403667

morteza: end
CPU 0 L1D next line prefetcher final stats

DRAM Statistics
 CHANNEL 0
 RQ ROW_BUFFER_HIT:      12492  ROW_BUFFER_MISS:      24059
 DBUS_CONGESTED:      24832
 WQ ROW_BUFFER_HIT:       1669  ROW_BUFFER_MISS:      15349  FULL:          0

 AVG_CONGESTED_CYCLE: 6

CPU 0 Branch Prediction Accuracy: 99.822% MPKI: 0.32584 Average ROB Occupancy at Mispredict: 157.548

Branch types
NOT_BRANCH: 40848551 81.6971%
BRANCH_DIRECT_JUMP: 522045 1.04409%
BRANCH_INDIRECT: 204034 0.408068%
BRANCH_CONDITIONAL: 6212957 12.4259%
BRANCH_DIRECT_CALL: 932391 1.86478%
BRANCH_INDIRECT_CALL: 173764 0.347528%
BRANCH_RETURN: 1106152 2.2123%
BRANCH_OTHER: 0 0%

