Initialize SIGNATURE TABLE
ST_SET: 1
ST_WAY: 256
ST_TAG_BIT: 16
ST_TAG_MASK: ffff

Initialize PATTERN TABLE
PT_SET: 512
PT_WAY: 4
SIG_DELTA_BIT: 7
C_SIG_BIT: 4
C_DELTA_BIT: 4

Initialize PREFETCH FILTER
FILTER_SET: 1024
MANA initialize 
tds: 2 tdm: 4
size MANA SINGLE: 74 KB
size MANA NULTIPLE: 43 KB
size HOBPT: 5 KB
size SRQ: 0.14502 KB
size SABs: 0.290039 KB
size prefetch queue: 0.453125 KB
total: 122.888 KB

*** ChampSim Multicore Out-of-Order Simulator ***

Warmup Instructions: 50000000
Simulation Instructions: 50000000
Number of CPUs: 1
LLC sets: 2048
LLC ways: 16
Off-chip DRAM Size: 4096 MB Channels: 1 Width: 64-bit Data Rate: 3200 MT/s

CPU 0 runs /home/mbaradaran/ChampSim/dpc3_traces/server_015.champsimtrace.xz
CPU 0 L1D next line prefetcher
Heartbeat CPU 0 instructions: 10000002 cycles: 3519391 heartbeat IPC: 2.8414 cumulative IPC: 2.8414 (Simulation time: 0 hr 1 min 22 sec) 
Heartbeat CPU 0 instructions: 20000001 cycles: 7107069 heartbeat IPC: 2.78732 cumulative IPC: 2.8141 (Simulation time: 0 hr 2 min 41 sec) 
Heartbeat CPU 0 instructions: 30000001 cycles: 10646033 heartbeat IPC: 2.82569 cumulative IPC: 2.81795 (Simulation time: 0 hr 4 min 8 sec) 
Heartbeat CPU 0 instructions: 40000002 cycles: 14194075 heartbeat IPC: 2.81846 cumulative IPC: 2.81808 (Simulation time: 0 hr 5 min 39 sec) 
Heartbeat CPU 0 instructions: 50000002 cycles: 17742335 heartbeat IPC: 2.81828 cumulative IPC: 2.81812 (Simulation time: 0 hr 7 min 0 sec) 

Warmup complete CPU 0 instructions: 50000002 cycles: 17742335 (Simulation time: 0 hr 7 min 0 sec) 

Heartbeat CPU 0 instructions: 60000002 cycles: 24089169 heartbeat IPC: 1.57559 cumulative IPC: 1.57559 (Simulation time: 0 hr 8 min 16 sec) 
Heartbeat CPU 0 instructions: 70000003 cycles: 30445984 heartbeat IPC: 1.57311 cumulative IPC: 1.57435 (Simulation time: 0 hr 9 min 35 sec) 
Heartbeat CPU 0 instructions: 80000000 cycles: 36800193 heartbeat IPC: 1.57376 cumulative IPC: 1.57415 (Simulation time: 0 hr 10 min 56 sec) 
Heartbeat CPU 0 instructions: 90000000 cycles: 43160394 heartbeat IPC: 1.57228 cumulative IPC: 1.57368 (Simulation time: 0 hr 12 min 12 sec) 
Heartbeat CPU 0 instructions: 100000002 cycles: 49519791 heartbeat IPC: 1.57248 cumulative IPC: 1.57344 (Simulation time: 0 hr 13 min 29 sec) 
Finished CPU 0 instructions: 50000000 cycles: 31777456 cumulative IPC: 1.57344 (Simulation time: 0 hr 13 min 29 sec) 

ChampSim completed all CPUs

Region of Interest Statistics

CPU 0 cumulative IPC: 1.57344 instructions: 50000000 cycles: 31777456

SHEET
IPC : 1.57344

L1D TOTAL     ACCESS:   21869164  HIT:   21852392  MISS:      16772
L1D LOAD      ACCESS:    6709514  HIT:    6708981  MISS:        533
L1D RFO       ACCESS:    8562659  HIT:    8562564  MISS:         95
L1D PREFETCH  ACCESS:    6596991  HIT:    6580847  MISS:      16144
L1D WRITEBACK ACCESS:          0  HIT:          0  MISS:          0
L1D PREFETCH  REQUESTED:    6709578  ISSUED:    6601157  USEFUL:         86  USELESS:      16056
L1D AVERAGE MISS LATENCY: 16.1117 cycles
L1D

SHEET
L1D-total_access : 21869164
L1D-total_hit : 21852392
L1D-total_miss : 16772
L1D-load_access : 6709514
L1D-load_hit : 6708981
L1D-load_miss : 533
L1D-rfo_access : 8562659
L1D-rfo_hit : 8562564
L1D-rfo_miss : 95
L1D-prefetch_access : 6596991
L1D-prefetch_hit : 6580847
L1D-prefetch_miss : 16144
L1D-writeback_access : 0
L1D-writeback_hit : 0
L1D-writeback_miss : 0
L1D-prefetch_requested : 6709578
L1D-prefetch_issued : 6601157
L1D-prefetch_useful : 86
L1D-prefetch_useless : 16056
L1D-Avg_miss_latency : 16.1117
L1D-Morteza_fill_l2_prefetches : 0

L1I TOTAL     ACCESS:   16117033  HIT:   13982039  MISS:    2134994
L1I LOAD      ACCESS:    9589203  HIT:    9183516  MISS:     405687
L1I RFO       ACCESS:          0  HIT:          0  MISS:          0
L1I PREFETCH  ACCESS:    6527830  HIT:    4798523  MISS:    1729307
L1I WRITEBACK ACCESS:          0  HIT:          0  MISS:          0
L1I PREFETCH  REQUESTED:    7064156  ISSUED:    7064139  USEFUL:    1611780  USELESS:     117554
L1I AVERAGE MISS LATENCY: 12.3437 cycles
L1I

SHEET
L1I-total_access : 16117033
L1I-total_hit : 13982039
L1I-total_miss : 2134994
L1I-load_access : 9589203
L1I-load_hit : 9183516
L1I-load_miss : 405687
L1I-rfo_access : 0
L1I-rfo_hit : 0
L1I-rfo_miss : 0
L1I-prefetch_access : 6527830
L1I-prefetch_hit : 4798523
L1I-prefetch_miss : 1729307
L1I-writeback_access : 0
L1I-writeback_hit : 0
L1I-writeback_miss : 0
L1I-prefetch_requested : 7064156
L1I-prefetch_issued : 7064139
L1I-prefetch_useful : 1611780
L1I-prefetch_useless : 117554
L1I-Avg_miss_latency : 12.3437
L1I-Morteza_fill_l2_prefetches : 0

L2C TOTAL     ACCESS:    3051767  HIT:    3051470  MISS:        297
L2C LOAD      ACCESS:     106264  HIT:     106190  MISS:         74
L2C RFO       ACCESS:         94  HIT:         89  MISS:          5
L2C PREFETCH  ACCESS:    2945059  HIT:    2944842  MISS:        217
L2C WRITEBACK ACCESS:        350  HIT:        349  MISS:          1
L2C PREFETCH  REQUESTED:    2230131  ISSUED:    2230026  USEFUL:         95  USELESS:        121
L2C AVERAGE MISS LATENCY: 93.1717 cycles
L2C

SHEET
L2C-total_access : 3051767
L2C-total_hit : 3051470
L2C-total_miss : 297
L2C-load_access : 106264
L2C-load_hit : 106190
L2C-load_miss : 74
L2C-rfo_access : 94
L2C-rfo_hit : 89
L2C-rfo_miss : 5
L2C-prefetch_access : 2945059
L2C-prefetch_hit : 2944842
L2C-prefetch_miss : 217
L2C-writeback_access : 350
L2C-writeback_hit : 349
L2C-writeback_miss : 1
L2C-prefetch_requested : 2230131
L2C-prefetch_issued : 2230026
L2C-prefetch_useful : 95
L2C-prefetch_useless : 121
L2C-Avg_miss_latency : 93.1717
L2C-Morteza_fill_l2_prefetches : 912542

LLC TOTAL     ACCESS:     306764  HIT:     306152  MISS:        612
LLC LOAD      ACCESS:         74  HIT:         59  MISS:         15
LLC RFO       ACCESS:          5  HIT:          3  MISS:          2
LLC PREFETCH  ACCESS:     306590  HIT:     305995  MISS:        595
LLC WRITEBACK ACCESS:         95  HIT:         95  MISS:          0
LLC PREFETCH  REQUESTED:          0  ISSUED:          0  USEFUL:         12  USELESS:        167
LLC AVERAGE MISS LATENCY: 267.717 cycles
LLC

SHEET
LLC-total_access : 306764
LLC-total_hit : 306152
LLC-total_miss : 612
LLC-load_access : 74
LLC-load_hit : 59
LLC-load_miss : 15
LLC-rfo_access : 5
LLC-rfo_hit : 3
LLC-rfo_miss : 2
LLC-prefetch_access : 306590
LLC-prefetch_hit : 305995
LLC-prefetch_miss : 595
LLC-writeback_access : 95
LLC-writeback_hit : 95
LLC-writeback_miss : 0
LLC-prefetch_requested : 0
LLC-prefetch_issued : 0
LLC-prefetch_useful : 12
LLC-prefetch_useless : 167
LLC-Avg_miss_latency : 267.717
LLC-Morteza_fill_l2_prefetches : 305910

Major fault: 0 Minor fault: 1949



Printing Logs
statHeadFound: 506018
statHeadMissing: 434272
statStreamBufferHit: 13685014
statPrefetchEntryFound: 4778670
statCompactorMatch: 11426563
statStreamTrackerLookup: 14625304
statRecord: 3198741
statGetPointer: 940290
statEnqueuePrefetch: 14054973
statPrefetchQueueIsFull: 0
StreamBufferHitRate: 0.935708
Regions' size: 2524
next_region_correct: 2345052
next_region_wrong: 851147
next_region_correct_prediction: 0.7337
statStreamBufferLookups: 1053021888
statL1iLookups: 112439784
statCompactorLookups: 526510944
morteza: start

SHEET
mana_table_access_counter : 4863104
mana_table_multiple_access_counter : 3622914
hobp_table_access_counter : 25100241
sab_access_counter : 18463684
srq_access_counter : 17021765

morteza: end
CPU 0 L1D next line prefetcher final stats

DRAM Statistics
 CHANNEL 0
 RQ ROW_BUFFER_HIT:         86  ROW_BUFFER_MISS:        526
 DBUS_CONGESTED:        388
 WQ ROW_BUFFER_HIT:         62  ROW_BUFFER_MISS:        324  FULL:          0

 AVG_CONGESTED_CYCLE: 6

CPU 0 Branch Prediction Accuracy: 99.9085% MPKI: 0.15428 Average ROB Occupancy at Mispredict: 274.392

Branch types
NOT_BRANCH: 41573034 83.1461%
BRANCH_DIRECT_JUMP: 436254 0.872508%
BRANCH_INDIRECT: 0 0%
BRANCH_CONDITIONAL: 5395884 10.7918%
BRANCH_DIRECT_CALL: 1173388 2.34678%
BRANCH_INDIRECT_CALL: 123910 0.24782%
BRANCH_RETURN: 1297308 2.59462%
BRANCH_OTHER: 0 0%

