Initialize SIGNATURE TABLE
ST_SET: 1
ST_WAY: 256
ST_TAG_BIT: 16
ST_TAG_MASK: ffff

Initialize PATTERN TABLE
PT_SET: 512
PT_WAY: 4
SIG_DELTA_BIT: 7
C_SIG_BIT: 4
C_DELTA_BIT: 4

Initialize PREFETCH FILTER
FILTER_SET: 1024
MANA initialize 
tds: 2 tdm: 4
size MANA SINGLE: 74 KB
size MANA NULTIPLE: 43 KB
size HOBPT: 5 KB
size SRQ: 0.14502 KB
size SABs: 0.290039 KB
size prefetch queue: 0.453125 KB
total: 122.888 KB

*** ChampSim Multicore Out-of-Order Simulator ***

Warmup Instructions: 50000000
Simulation Instructions: 50000000
Number of CPUs: 1
LLC sets: 2048
LLC ways: 16
Off-chip DRAM Size: 4096 MB Channels: 1 Width: 64-bit Data Rate: 3200 MT/s

CPU 0 runs /home/mbaradaran/ChampSim/dpc3_traces/server_037.champsimtrace.xz
CPU 0 L1D next line prefetcher
Heartbeat CPU 0 instructions: 10000001 cycles: 3319554 heartbeat IPC: 3.01245 cumulative IPC: 3.01245 (Simulation time: 0 hr 1 min 27 sec) 
Heartbeat CPU 0 instructions: 20000002 cycles: 6636221 heartbeat IPC: 3.01508 cumulative IPC: 3.01376 (Simulation time: 0 hr 2 min 52 sec) 
Heartbeat CPU 0 instructions: 30000003 cycles: 10000846 heartbeat IPC: 2.9721 cumulative IPC: 2.99975 (Simulation time: 0 hr 4 min 14 sec) 
Heartbeat CPU 0 instructions: 40000000 cycles: 13319505 heartbeat IPC: 3.01326 cumulative IPC: 3.00311 (Simulation time: 0 hr 5 min 36 sec) 
Heartbeat CPU 0 instructions: 50000003 cycles: 16637483 heartbeat IPC: 3.01388 cumulative IPC: 3.00526 (Simulation time: 0 hr 6 min 58 sec) 

Warmup complete CPU 0 instructions: 50000003 cycles: 16637483 (Simulation time: 0 hr 6 min 58 sec) 

Heartbeat CPU 0 instructions: 60000001 cycles: 23059111 heartbeat IPC: 1.55724 cumulative IPC: 1.55724 (Simulation time: 0 hr 8 min 23 sec) 
Heartbeat CPU 0 instructions: 70000000 cycles: 29588403 heartbeat IPC: 1.53156 cumulative IPC: 1.54429 (Simulation time: 0 hr 9 min 44 sec) 
Heartbeat CPU 0 instructions: 80000000 cycles: 36003690 heartbeat IPC: 1.55878 cumulative IPC: 1.54909 (Simulation time: 0 hr 11 min 3 sec) 
Heartbeat CPU 0 instructions: 90000002 cycles: 42442732 heartbeat IPC: 1.55303 cumulative IPC: 1.55007 (Simulation time: 0 hr 12 min 25 sec) 
*** Reached end of trace for Core: 0 Repeating trace: /home/mbaradaran/ChampSim/dpc3_traces/server_037.champsimtrace.xz
Heartbeat CPU 0 instructions: 100000000 cycles: 48879577 heartbeat IPC: 1.55356 cumulative IPC: 1.55077 (Simulation time: 0 hr 13 min 45 sec) 
Finished CPU 0 instructions: 50000001 cycles: 32242095 cumulative IPC: 1.55077 (Simulation time: 0 hr 13 min 45 sec) 

ChampSim completed all CPUs

Region of Interest Statistics

CPU 0 cumulative IPC: 1.55077 instructions: 50000001 cycles: 32242095

SHEET
IPC : 1.55077

L1D TOTAL     ACCESS:   18740762  HIT:   17762790  MISS:     977972
L1D LOAD      ACCESS:    6385658  HIT:    5895382  MISS:     490276
L1D RFO       ACCESS:    6205733  HIT:    6141317  MISS:      64416
L1D PREFETCH  ACCESS:    6149371  HIT:    5726091  MISS:     423280
L1D WRITEBACK ACCESS:          0  HIT:          0  MISS:          0
L1D PREFETCH  REQUESTED:    6422493  ISSUED:    6269370  USEFUL:     118159  USELESS:     305126
L1D AVERAGE MISS LATENCY: 29.1538 cycles
L1D

SHEET
L1D-total_access : 18740762
L1D-total_hit : 17762790
L1D-total_miss : 977972
L1D-load_access : 6385658
L1D-load_hit : 5895382
L1D-load_miss : 490276
L1D-rfo_access : 6205733
L1D-rfo_hit : 6141317
L1D-rfo_miss : 64416
L1D-prefetch_access : 6149371
L1D-prefetch_hit : 5726091
L1D-prefetch_miss : 423280
L1D-writeback_access : 0
L1D-writeback_hit : 0
L1D-writeback_miss : 0
L1D-prefetch_requested : 6422493
L1D-prefetch_issued : 6269370
L1D-prefetch_useful : 118159
L1D-prefetch_useless : 305126
L1D-Avg_miss_latency : 29.1538
L1D-Morteza_fill_l2_prefetches : 0

L1I TOTAL     ACCESS:   15167375  HIT:   11008901  MISS:    4158474
L1I LOAD      ACCESS:    9278611  HIT:    8656223  MISS:     622388
L1I RFO       ACCESS:          0  HIT:          0  MISS:          0
L1I PREFETCH  ACCESS:    5888764  HIT:    2352678  MISS:    3536086
L1I WRITEBACK ACCESS:          0  HIT:          0  MISS:          0
L1I PREFETCH  REQUESTED:    6466400  ISSUED:    6466400  USEFUL:    3380079  USELESS:     156020
L1I AVERAGE MISS LATENCY: 13.5122 cycles
L1I

SHEET
L1I-total_access : 15167375
L1I-total_hit : 11008901
L1I-total_miss : 4158474
L1I-load_access : 9278611
L1I-load_hit : 8656223
L1I-load_miss : 622388
L1I-rfo_access : 0
L1I-rfo_hit : 0
L1I-rfo_miss : 0
L1I-prefetch_access : 5888764
L1I-prefetch_hit : 2352678
L1I-prefetch_miss : 3536086
L1I-writeback_access : 0
L1I-writeback_hit : 0
L1I-writeback_miss : 0
L1I-prefetch_requested : 6466400
L1I-prefetch_issued : 6466400
L1I-prefetch_useful : 3380079
L1I-prefetch_useless : 156020
L1I-Avg_miss_latency : 13.5122
L1I-Morteza_fill_l2_prefetches : 0

L2C TOTAL     ACCESS:    7542646  HIT:    7227206  MISS:     315440
L2C LOAD      ACCESS:     665857  HIT:     524433  MISS:     141424
L2C RFO       ACCESS:      64142  HIT:      37062  MISS:      27080
L2C PREFETCH  ACCESS:    6523128  HIT:    6377357  MISS:     145771
L2C WRITEBACK ACCESS:     289519  HIT:     288354  MISS:       1165
L2C PREFETCH  REQUESTED:    6678795  ISSUED:    6661736  USEFUL:       6364  USELESS:     139122
L2C AVERAGE MISS LATENCY: 45.578 cycles
L2C

SHEET
L2C-total_access : 7542646
L2C-total_hit : 7227206
L2C-total_miss : 315440
L2C-load_access : 665857
L2C-load_hit : 524433
L2C-load_miss : 141424
L2C-rfo_access : 64142
L2C-rfo_hit : 37062
L2C-rfo_miss : 27080
L2C-prefetch_access : 6523128
L2C-prefetch_hit : 6377357
L2C-prefetch_miss : 145771
L2C-writeback_access : 289519
L2C-writeback_hit : 288354
L2C-writeback_miss : 1165
L2C-prefetch_requested : 6678795
L2C-prefetch_issued : 6661736
L2C-prefetch_useful : 6364
L2C-prefetch_useless : 139122
L2C-Avg_miss_latency : 45.578
L2C-Morteza_fill_l2_prefetches : 2140843

LLC TOTAL     ACCESS:    1716605  HIT:    1658549  MISS:      58056
LLC LOAD      ACCESS:     141407  HIT:     128253  MISS:      13154
LLC RFO       ACCESS:      27077  HIT:      22822  MISS:       4255
LLC PREFETCH  ACCESS:    1407051  HIT:    1367044  MISS:      40007
LLC WRITEBACK ACCESS:     141070  HIT:     140430  MISS:        640
LLC PREFETCH  REQUESTED:          0  ISSUED:          0  USEFUL:       4583  USELESS:      34609
LLC AVERAGE MISS LATENCY: 167.719 cycles
LLC

SHEET
LLC-total_access : 1716605
LLC-total_hit : 1658549
LLC-total_miss : 58056
LLC-load_access : 141407
LLC-load_hit : 128253
LLC-load_miss : 13154
LLC-rfo_access : 27077
LLC-rfo_hit : 22822
LLC-rfo_miss : 4255
LLC-prefetch_access : 1407051
LLC-prefetch_hit : 1367044
LLC-prefetch_miss : 40007
LLC-writeback_access : 141070
LLC-writeback_hit : 140430
LLC-writeback_miss : 640
LLC-prefetch_requested : 0
LLC-prefetch_issued : 0
LLC-prefetch_useful : 4583
LLC-prefetch_useless : 34609
LLC-Avg_miss_latency : 167.719
LLC-Morteza_fill_l2_prefetches : 1241967

Major fault: 0 Minor fault: 5704



Printing Logs
statHeadFound: 300522
statHeadMissing: 390882
statStreamBufferHit: 13824763
statPrefetchEntryFound: 4104321
statCompactorMatch: 11283581
statStreamTrackerLookup: 14516167
statRecord: 3232586
statGetPointer: 691404
statEnqueuePrefetch: 12918987
statPrefetchQueueIsFull: 0
StreamBufferHitRate: 0.95237
Regions' size: 1145
next_region_correct: 2565601
next_region_wrong: 665822
next_region_correct_prediction: 0.793954
statStreamBufferLookups: 1045164024
statL1iLookups: 103351896
statCompactorLookups: 522582012
morteza: start

SHEET
mana_table_access_counter : 5132586
mana_table_multiple_access_counter : 2506181
hobp_table_access_counter : 22568100
sab_access_counter : 17929084
srq_access_counter : 16674185

morteza: end
CPU 0 L1D next line prefetcher final stats

DRAM Statistics
 CHANNEL 0
 RQ ROW_BUFFER_HIT:      10065  ROW_BUFFER_MISS:      47351
 DBUS_CONGESTED:      26688
 WQ ROW_BUFFER_HIT:       1375  ROW_BUFFER_MISS:      11116  FULL:          0

 AVG_CONGESTED_CYCLE: 5

CPU 0 Branch Prediction Accuracy: 99.913% MPKI: 0.15656 Average ROB Occupancy at Mispredict: 181.904

Branch types
NOT_BRANCH: 41001716 82.0034%
BRANCH_DIRECT_JUMP: 541941 1.08388%
BRANCH_INDIRECT: 59716 0.119432%
BRANCH_CONDITIONAL: 5916850 11.8337%
BRANCH_DIRECT_CALL: 1005465 2.01093%
BRANCH_INDIRECT_CALL: 234433 0.468866%
BRANCH_RETURN: 1239877 2.47975%
BRANCH_OTHER: 0 0%

