Initialize SIGNATURE TABLE
ST_SET: 1
ST_WAY: 256
ST_TAG_BIT: 16
ST_TAG_MASK: ffff

Initialize PATTERN TABLE
PT_SET: 512
PT_WAY: 4
SIG_DELTA_BIT: 7
C_SIG_BIT: 4
C_DELTA_BIT: 4

Initialize PREFETCH FILTER
FILTER_SET: 1024
MANA initialize 
tds: 2 tdm: 4
size MANA SINGLE: 74 KB
size MANA NULTIPLE: 43 KB
size HOBPT: 5 KB
size SRQ: 0.14502 KB
size SABs: 0.290039 KB
size prefetch queue: 0.453125 KB
total: 122.888 KB

*** ChampSim Multicore Out-of-Order Simulator ***

Warmup Instructions: 50000000
Simulation Instructions: 50000000
Number of CPUs: 1
LLC sets: 2048
LLC ways: 16
Off-chip DRAM Size: 4096 MB Channels: 1 Width: 64-bit Data Rate: 3200 MT/s

CPU 0 runs /home/mbaradaran/ChampSim/dpc3_traces/spec_perlbench_001.champsimtrace.xz
CPU 0 L1D next line prefetcher
Heartbeat CPU 0 instructions: 10000000 cycles: 3275926 heartbeat IPC: 3.05257 cumulative IPC: 3.05257 (Simulation time: 0 hr 1 min 11 sec) 
Heartbeat CPU 0 instructions: 20000000 cycles: 6540644 heartbeat IPC: 3.06305 cumulative IPC: 3.0578 (Simulation time: 0 hr 2 min 22 sec) 
Heartbeat CPU 0 instructions: 30000002 cycles: 9857426 heartbeat IPC: 3.01497 cumulative IPC: 3.04339 (Simulation time: 0 hr 3 min 36 sec) 
Heartbeat CPU 0 instructions: 40000002 cycles: 13113047 heartbeat IPC: 3.07161 cumulative IPC: 3.0504 (Simulation time: 0 hr 4 min 46 sec) 
Heartbeat CPU 0 instructions: 50000001 cycles: 16386941 heartbeat IPC: 3.05447 cumulative IPC: 3.05121 (Simulation time: 0 hr 5 min 50 sec) 

Warmup complete CPU 0 instructions: 50000001 cycles: 16386941 (Simulation time: 0 hr 5 min 50 sec) 

Heartbeat CPU 0 instructions: 60000001 cycles: 24749936 heartbeat IPC: 1.19574 cumulative IPC: 1.19574 (Simulation time: 0 hr 6 min 49 sec) 
Heartbeat CPU 0 instructions: 70000000 cycles: 32990674 heartbeat IPC: 1.21348 cumulative IPC: 1.20455 (Simulation time: 0 hr 7 min 51 sec) 
Heartbeat CPU 0 instructions: 80000000 cycles: 41455671 heartbeat IPC: 1.18134 cumulative IPC: 1.19671 (Simulation time: 0 hr 8 min 51 sec) 
Heartbeat CPU 0 instructions: 90000000 cycles: 47186673 heartbeat IPC: 1.7449 cumulative IPC: 1.29871 (Simulation time: 0 hr 9 min 38 sec) 
Heartbeat CPU 0 instructions: 100000002 cycles: 53083419 heartbeat IPC: 1.69585 cumulative IPC: 1.36253 (Simulation time: 0 hr 10 min 25 sec) 
Finished CPU 0 instructions: 50000001 cycles: 36696478 cumulative IPC: 1.36253 (Simulation time: 0 hr 10 min 25 sec) 

ChampSim completed all CPUs

Region of Interest Statistics

CPU 0 cumulative IPC: 1.36253 instructions: 50000001 cycles: 36696478

SHEET
IPC : 1.36253

L1D TOTAL     ACCESS:   20767903  HIT:   20352769  MISS:     415134
L1D LOAD      ACCESS:    7212475  HIT:    6998791  MISS:     213684
L1D RFO       ACCESS:    6543620  HIT:    6525127  MISS:      18493
L1D PREFETCH  ACCESS:    7011808  HIT:    6828851  MISS:     182957
L1D WRITEBACK ACCESS:          0  HIT:          0  MISS:          0
L1D PREFETCH  REQUESTED:    7228524  ISSUED:    7112654  USEFUL:      55241  USELESS:     127711
L1D AVERAGE MISS LATENCY: 58.1768 cycles
L1D

SHEET
L1D-total_access : 20767903
L1D-total_hit : 20352769
L1D-total_miss : 415134
L1D-load_access : 7212475
L1D-load_hit : 6998791
L1D-load_miss : 213684
L1D-rfo_access : 6543620
L1D-rfo_hit : 6525127
L1D-rfo_miss : 18493
L1D-prefetch_access : 7011808
L1D-prefetch_hit : 6828851
L1D-prefetch_miss : 182957
L1D-writeback_access : 0
L1D-writeback_hit : 0
L1D-writeback_miss : 0
L1D-prefetch_requested : 7228524
L1D-prefetch_issued : 7112654
L1D-prefetch_useful : 55241
L1D-prefetch_useless : 127711
L1D-Avg_miss_latency : 58.1768
L1D-Morteza_fill_l2_prefetches : 0

L1I TOTAL     ACCESS:   15509714  HIT:   14758412  MISS:     751302
L1I LOAD      ACCESS:    9150542  HIT:    8983043  MISS:     167499
L1I RFO       ACCESS:          0  HIT:          0  MISS:          0
L1I PREFETCH  ACCESS:    6359172  HIT:    5775369  MISS:     583803
L1I WRITEBACK ACCESS:          0  HIT:          0  MISS:          0
L1I PREFETCH  REQUESTED:    6624386  ISSUED:    6618843  USEFUL:     387491  USELESS:     196315
L1I AVERAGE MISS LATENCY: 16.0374 cycles
L1I

SHEET
L1I-total_access : 15509714
L1I-total_hit : 14758412
L1I-total_miss : 751302
L1I-load_access : 9150542
L1I-load_hit : 8983043
L1I-load_miss : 167499
L1I-rfo_access : 0
L1I-rfo_hit : 0
L1I-rfo_miss : 0
L1I-prefetch_access : 6359172
L1I-prefetch_hit : 5775369
L1I-prefetch_miss : 583803
L1I-writeback_access : 0
L1I-writeback_hit : 0
L1I-writeback_miss : 0
L1I-prefetch_requested : 6624386
L1I-prefetch_issued : 6618843
L1I-prefetch_useful : 387491
L1I-prefetch_useless : 196315
L1I-Avg_miss_latency : 16.0374
L1I-Morteza_fill_l2_prefetches : 0

L2C TOTAL     ACCESS:    1649746  HIT:    1483752  MISS:     165994
L2C LOAD      ACCESS:     327536  HIT:     247257  MISS:      80279
L2C RFO       ACCESS:      18279  HIT:      12958  MISS:       5321
L2C PREFETCH  ACCESS:    1224983  HIT:    1144940  MISS:      80043
L2C WRITEBACK ACCESS:      78948  HIT:      78597  MISS:        351
L2C PREFETCH  REQUESTED:    1060504  ISSUED:    1060483  USEFUL:       6767  USELESS:      73219
L2C AVERAGE MISS LATENCY: 120.889 cycles
L2C

SHEET
L2C-total_access : 1649746
L2C-total_hit : 1483752
L2C-total_miss : 165994
L2C-load_access : 327536
L2C-load_hit : 247257
L2C-load_miss : 80279
L2C-rfo_access : 18279
L2C-rfo_hit : 12958
L2C-rfo_miss : 5321
L2C-prefetch_access : 1224983
L2C-prefetch_hit : 1144940
L2C-prefetch_miss : 80043
L2C-writeback_access : 78948
L2C-writeback_hit : 78597
L2C-writeback_miss : 351
L2C-prefetch_requested : 1060504
L2C-prefetch_issued : 1060483
L2C-prefetch_useful : 6767
L2C-prefetch_useless : 73219
L2C-Avg_miss_latency : 120.889
L2C-Morteza_fill_l2_prefetches : 406653

LLC TOTAL     ACCESS:     411191  HIT:     269203  MISS:     141988
LLC LOAD      ACCESS:      80276  HIT:      31638  MISS:      48638
LLC RFO       ACCESS:       5321  HIT:       2289  MISS:       3032
LLC PREFETCH  ACCESS:     300268  HIT:     210436  MISS:      89832
LLC WRITEBACK ACCESS:      25326  HIT:      24840  MISS:        486
LLC PREFETCH  REQUESTED:          0  ISSUED:          0  USEFUL:      14391  USELESS:      75589
LLC AVERAGE MISS LATENCY: 159.818 cycles
LLC

SHEET
LLC-total_access : 411191
LLC-total_hit : 269203
LLC-total_miss : 141988
LLC-load_access : 80276
LLC-load_hit : 31638
LLC-load_miss : 48638
LLC-rfo_access : 5321
LLC-rfo_hit : 2289
LLC-rfo_miss : 3032
LLC-prefetch_access : 300268
LLC-prefetch_hit : 210436
LLC-prefetch_miss : 89832
LLC-writeback_access : 25326
LLC-writeback_hit : 24840
LLC-writeback_miss : 486
LLC-prefetch_requested : 0
LLC-prefetch_issued : 0
LLC-prefetch_useful : 14391
LLC-prefetch_useless : 75589
LLC-Avg_miss_latency : 159.818
LLC-Morteza_fill_l2_prefetches : 174096

Major fault: 0 Minor fault: 6476



Printing Logs
statHeadFound: 729199
statHeadMissing: 245835
statStreamBufferHit: 13304953
statPrefetchEntryFound: 4307267
statCompactorMatch: 12972198
statStreamTrackerLookup: 14279987
statRecord: 1307789
statGetPointer: 975034
statEnqueuePrefetch: 13202810
statPrefetchQueueIsFull: 94
StreamBufferHitRate: 0.93172
Regions' size: 2413
next_region_correct: 913102
next_region_wrong: 392256
next_region_correct_prediction: 0.699503
statStreamBufferLookups: 1028159064
statL1iLookups: 105622480
statCompactorLookups: 514079532
morteza: start

SHEET
mana_table_access_counter : 1619606
mana_table_multiple_access_counter : 4728940
hobp_table_access_counter : 17345747
sab_access_counter : 17612220
srq_access_counter : 12607137

morteza: end
CPU 0 L1D next line prefetcher final stats

DRAM Statistics
 CHANNEL 0
 RQ ROW_BUFFER_HIT:      32669  ROW_BUFFER_MISS:     108831
 DBUS_CONGESTED:      58236
 WQ ROW_BUFFER_HIT:       4239  ROW_BUFFER_MISS:      13104  FULL:          0

 AVG_CONGESTED_CYCLE: 4

CPU 0 Branch Prediction Accuracy: 98.7418% MPKI: 2.47758 Average ROB Occupancy at Mispredict: 75.7346

Branch types
NOT_BRANCH: 40154100 80.3082%
BRANCH_DIRECT_JUMP: 817094 1.63419%
BRANCH_INDIRECT: 303787 0.607574%
BRANCH_CONDITIONAL: 7492103 14.9842%
BRANCH_DIRECT_CALL: 471777 0.943554%
BRANCH_INDIRECT_CALL: 144546 0.289092%
BRANCH_RETURN: 616324 1.23265%
BRANCH_OTHER: 0 0%

