Initialize SIGNATURE TABLE
ST_SET: 1
ST_WAY: 256
ST_TAG_BIT: 16
ST_TAG_MASK: ffff

Initialize PATTERN TABLE
PT_SET: 512
PT_WAY: 4
SIG_DELTA_BIT: 7
C_SIG_BIT: 4
C_DELTA_BIT: 4

Initialize PREFETCH FILTER
FILTER_SET: 1024
MANA initialize 
tds: 2 tdm: 4
size MANA SINGLE: 74 KB
size MANA NULTIPLE: 43 KB
size HOBPT: 5 KB
size SRQ: 0.14502 KB
size SABs: 0.290039 KB
size prefetch queue: 0.453125 KB
total: 122.888 KB

*** ChampSim Multicore Out-of-Order Simulator ***

Warmup Instructions: 50000000
Simulation Instructions: 50000000
Number of CPUs: 1
LLC sets: 2048
LLC ways: 16
Off-chip DRAM Size: 4096 MB Channels: 1 Width: 64-bit Data Rate: 3200 MT/s

CPU 0 runs /home/mbaradaran/ChampSim/dpc3_traces/spec_gobmk_001.champsimtrace.xz
CPU 0 L1D next line prefetcher
Heartbeat CPU 0 instructions: 10000003 cycles: 3507110 heartbeat IPC: 2.85135 cumulative IPC: 2.85135 (Simulation time: 0 hr 1 min 11 sec) 
Heartbeat CPU 0 instructions: 20000002 cycles: 6987566 heartbeat IPC: 2.87319 cumulative IPC: 2.86223 (Simulation time: 0 hr 2 min 16 sec) 
Heartbeat CPU 0 instructions: 30000002 cycles: 10506778 heartbeat IPC: 2.84155 cumulative IPC: 2.8553 (Simulation time: 0 hr 3 min 18 sec) 
Heartbeat CPU 0 instructions: 40000001 cycles: 14025974 heartbeat IPC: 2.84156 cumulative IPC: 2.85185 (Simulation time: 0 hr 4 min 19 sec) 
Heartbeat CPU 0 instructions: 50000001 cycles: 17566210 heartbeat IPC: 2.82467 cumulative IPC: 2.84637 (Simulation time: 0 hr 5 min 22 sec) 

Warmup complete CPU 0 instructions: 50000001 cycles: 17566210 (Simulation time: 0 hr 5 min 22 sec) 

Heartbeat CPU 0 instructions: 60000000 cycles: 26494238 heartbeat IPC: 1.12007 cumulative IPC: 1.12007 (Simulation time: 0 hr 6 min 14 sec) 
Heartbeat CPU 0 instructions: 70000002 cycles: 35102694 heartbeat IPC: 1.16165 cumulative IPC: 1.14048 (Simulation time: 0 hr 7 min 2 sec) 
Heartbeat CPU 0 instructions: 80000003 cycles: 44069824 heartbeat IPC: 1.11518 cumulative IPC: 1.13192 (Simulation time: 0 hr 7 min 51 sec) 
Heartbeat CPU 0 instructions: 90000001 cycles: 52692755 heartbeat IPC: 1.1597 cumulative IPC: 1.13874 (Simulation time: 0 hr 8 min 39 sec) 
Heartbeat CPU 0 instructions: 100000003 cycles: 61676158 heartbeat IPC: 1.11316 cumulative IPC: 1.13353 (Simulation time: 0 hr 9 min 28 sec) 
Finished CPU 0 instructions: 50000002 cycles: 44109948 cumulative IPC: 1.13353 (Simulation time: 0 hr 9 min 28 sec) 

ChampSim completed all CPUs

Region of Interest Statistics

CPU 0 cumulative IPC: 1.13353 instructions: 50000002 cycles: 44109948

SHEET
IPC : 1.13353

L1D TOTAL     ACCESS:   18045233  HIT:   17665680  MISS:     379553
L1D LOAD      ACCESS:    7240313  HIT:    7105041  MISS:     135272
L1D RFO       ACCESS:    3703752  HIT:    3599295  MISS:     104457
L1D PREFETCH  ACCESS:    7101168  HIT:    6961344  MISS:     139824
L1D WRITEBACK ACCESS:          0  HIT:          0  MISS:          0
L1D PREFETCH  REQUESTED:    7245448  ISSUED:    7162712  USEFUL:      45112  USELESS:      94717
L1D AVERAGE MISS LATENCY: 32.5386 cycles
L1D

SHEET
L1D-total_access : 18045233
L1D-total_hit : 17665680
L1D-total_miss : 379553
L1D-load_access : 7240313
L1D-load_hit : 7105041
L1D-load_miss : 135272
L1D-rfo_access : 3703752
L1D-rfo_hit : 3599295
L1D-rfo_miss : 104457
L1D-prefetch_access : 7101168
L1D-prefetch_hit : 6961344
L1D-prefetch_miss : 139824
L1D-writeback_access : 0
L1D-writeback_hit : 0
L1D-writeback_miss : 0
L1D-prefetch_requested : 7245448
L1D-prefetch_issued : 7162712
L1D-prefetch_useful : 45112
L1D-prefetch_useless : 94717
L1D-Avg_miss_latency : 32.5386
L1D-Morteza_fill_l2_prefetches : 0

L1I TOTAL     ACCESS:   15875178  HIT:   14847664  MISS:    1027514
L1I LOAD      ACCESS:    8962535  HIT:    8774452  MISS:     188083
L1I RFO       ACCESS:          0  HIT:          0  MISS:          0
L1I PREFETCH  ACCESS:    6912643  HIT:    6073212  MISS:     839431
L1I WRITEBACK ACCESS:          0  HIT:          0  MISS:          0
L1I PREFETCH  REQUESTED:    7465441  ISSUED:    7403517  USEFUL:     547197  USELESS:     292190
L1I AVERAGE MISS LATENCY: 14.6705 cycles
L1I

SHEET
L1I-total_access : 15875178
L1I-total_hit : 14847664
L1I-total_miss : 1027514
L1I-load_access : 8962535
L1I-load_hit : 8774452
L1I-load_miss : 188083
L1I-rfo_access : 0
L1I-rfo_hit : 0
L1I-rfo_miss : 0
L1I-prefetch_access : 6912643
L1I-prefetch_hit : 6073212
L1I-prefetch_miss : 839431
L1I-writeback_access : 0
L1I-writeback_hit : 0
L1I-writeback_miss : 0
L1I-prefetch_requested : 7465441
L1I-prefetch_issued : 7403517
L1I-prefetch_useful : 547197
L1I-prefetch_useless : 292190
L1I-Avg_miss_latency : 14.6705
L1I-Morteza_fill_l2_prefetches : 0

L2C TOTAL     ACCESS:    2138730  HIT:    2014526  MISS:     124204
L2C LOAD      ACCESS:     257700  HIT:     221518  MISS:      36182
L2C RFO       ACCESS:     104159  HIT:      71625  MISS:      32534
L2C PREFETCH  ACCESS:    1637575  HIT:    1582124  MISS:      55451
L2C WRITEBACK ACCESS:     139296  HIT:     139259  MISS:         37
L2C PREFETCH  REQUESTED:    1305026  ISSUED:    1304965  USEFUL:       4848  USELESS:      50985
L2C AVERAGE MISS LATENCY: 62.3974 cycles
L2C

SHEET
L2C-total_access : 2138730
L2C-total_hit : 2014526
L2C-total_miss : 124204
L2C-load_access : 257700
L2C-load_hit : 221518
L2C-load_miss : 36182
L2C-rfo_access : 104159
L2C-rfo_hit : 71625
L2C-rfo_miss : 32534
L2C-prefetch_access : 1637575
L2C-prefetch_hit : 1582124
L2C-prefetch_miss : 55451
L2C-writeback_access : 139296
L2C-writeback_hit : 139259
L2C-writeback_miss : 37
L2C-prefetch_requested : 1305026
L2C-prefetch_issued : 1304965
L2C-prefetch_useful : 4848
L2C-prefetch_useless : 50985
L2C-Avg_miss_latency : 62.3974
L2C-Morteza_fill_l2_prefetches : 599180

LLC TOTAL     ACCESS:     302160  HIT:     267622  MISS:      34538
LLC LOAD      ACCESS:      36179  HIT:      28075  MISS:       8104
LLC RFO       ACCESS:      32534  HIT:      27486  MISS:       5048
LLC PREFETCH  ACCESS:     190264  HIT:     169134  MISS:      21130
LLC WRITEBACK ACCESS:      43183  HIT:      42927  MISS:        256
LLC PREFETCH  REQUESTED:          0  ISSUED:          0  USEFUL:       1463  USELESS:      17928
LLC AVERAGE MISS LATENCY: 178.462 cycles
LLC

SHEET
LLC-total_access : 302160
LLC-total_hit : 267622
LLC-total_miss : 34538
LLC-load_access : 36179
LLC-load_hit : 28075
LLC-load_miss : 8104
LLC-rfo_access : 32534
LLC-rfo_hit : 27486
LLC-rfo_miss : 5048
LLC-prefetch_access : 190264
LLC-prefetch_hit : 169134
LLC-prefetch_miss : 21130
LLC-writeback_access : 43183
LLC-writeback_hit : 42927
LLC-writeback_miss : 256
LLC-prefetch_requested : 0
LLC-prefetch_issued : 0
LLC-prefetch_useful : 1463
LLC-prefetch_useless : 17928
LLC-Avg_miss_latency : 178.462
LLC-Morteza_fill_l2_prefetches : 124462

Major fault: 0 Minor fault: 4257



Printing Logs
statHeadFound: 849629
statHeadMissing: 296150
statStreamBufferHit: 11674652
statPrefetchEntryFound: 3540171
statCompactorMatch: 11791645
statStreamTrackerLookup: 12820431
statRecord: 1028786
statGetPointer: 1145779
statEnqueuePrefetch: 13831620
statPrefetchQueueIsFull: 11037
StreamBufferHitRate: 0.910629
Regions' size: 3111
next_region_correct: 542220
next_region_wrong: 483437
next_region_correct_prediction: 0.528656
statStreamBufferLookups: 923071032
statL1iLookups: 110652960
statCompactorLookups: 461535516
morteza: start

SHEET
mana_table_access_counter : 1317137
mana_table_multiple_access_counter : 4117061
hobp_table_access_counter : 16840178
sab_access_counter : 15214823
srq_access_counter : 12497173

morteza: end
CPU 0 L1D next line prefetcher final stats

DRAM Statistics
 CHANNEL 0
 RQ ROW_BUFFER_HIT:       3970  ROW_BUFFER_MISS:      30305
 DBUS_CONGESTED:      19478
 WQ ROW_BUFFER_HIT:       1132  ROW_BUFFER_MISS:      13799  FULL:          0

 AVG_CONGESTED_CYCLE: 4

CPU 0 Branch Prediction Accuracy: 94.7729% MPKI: 9.72684 Average ROB Occupancy at Mispredict: 52.6348

Branch types
NOT_BRANCH: 40695363 81.3907%
BRANCH_DIRECT_JUMP: 422107 0.844214%
BRANCH_INDIRECT: 65 0.00013%
BRANCH_CONDITIONAL: 8105003 16.21%
BRANCH_DIRECT_CALL: 374912 0.749824%
BRANCH_INDIRECT_CALL: 13657 0.027314%
BRANCH_RETURN: 388556 0.777112%
BRANCH_OTHER: 0 0%

