Initialize SIGNATURE TABLE
ST_SET: 1
ST_WAY: 256
ST_TAG_BIT: 16
ST_TAG_MASK: ffff

Initialize PATTERN TABLE
PT_SET: 512
PT_WAY: 4
SIG_DELTA_BIT: 7
C_SIG_BIT: 4
C_DELTA_BIT: 4

Initialize PREFETCH FILTER
FILTER_SET: 1024
MANA initialize 
tds: 2 tdm: 4
size MANA SINGLE: 74 KB
size MANA NULTIPLE: 43 KB
size HOBPT: 5 KB
size SRQ: 0.14502 KB
size SABs: 0.290039 KB
size prefetch queue: 0.453125 KB
total: 122.888 KB

*** ChampSim Multicore Out-of-Order Simulator ***

Warmup Instructions: 50000000
Simulation Instructions: 50000000
Number of CPUs: 1
LLC sets: 2048
LLC ways: 16
Off-chip DRAM Size: 4096 MB Channels: 1 Width: 64-bit Data Rate: 3200 MT/s

CPU 0 runs /home/mbaradaran/ChampSim/dpc3_traces/spec_gcc_001.champsimtrace.xz
CPU 0 L1D next line prefetcher
Heartbeat CPU 0 instructions: 10000003 cycles: 3219562 heartbeat IPC: 3.10601 cumulative IPC: 3.10601 (Simulation time: 0 hr 1 min 21 sec) 
Heartbeat CPU 0 instructions: 20000002 cycles: 6464380 heartbeat IPC: 3.08184 cumulative IPC: 3.09388 (Simulation time: 0 hr 2 min 37 sec) 
Heartbeat CPU 0 instructions: 30000000 cycles: 9666166 heartbeat IPC: 3.12326 cumulative IPC: 3.10361 (Simulation time: 0 hr 3 min 49 sec) 
Heartbeat CPU 0 instructions: 40000001 cycles: 12907386 heartbeat IPC: 3.08526 cumulative IPC: 3.099 (Simulation time: 0 hr 5 min 1 sec) 
Heartbeat CPU 0 instructions: 50000001 cycles: 16147939 heartbeat IPC: 3.08589 cumulative IPC: 3.09637 (Simulation time: 0 hr 6 min 15 sec) 

Warmup complete CPU 0 instructions: 50000001 cycles: 16147939 (Simulation time: 0 hr 6 min 15 sec) 

Heartbeat CPU 0 instructions: 60000000 cycles: 23984285 heartbeat IPC: 1.2761 cumulative IPC: 1.2761 (Simulation time: 0 hr 7 min 24 sec) 
Heartbeat CPU 0 instructions: 70000002 cycles: 31908476 heartbeat IPC: 1.26196 cumulative IPC: 1.26899 (Simulation time: 0 hr 8 min 31 sec) 
Heartbeat CPU 0 instructions: 80000000 cycles: 39515346 heartbeat IPC: 1.3146 cumulative IPC: 1.28384 (Simulation time: 0 hr 9 min 33 sec) 
Heartbeat CPU 0 instructions: 90000003 cycles: 47413372 heartbeat IPC: 1.26614 cumulative IPC: 1.27937 (Simulation time: 0 hr 10 min 38 sec) 
Heartbeat CPU 0 instructions: 100000000 cycles: 55608114 heartbeat IPC: 1.22029 cumulative IPC: 1.2671 (Simulation time: 0 hr 11 min 45 sec) 
Finished CPU 0 instructions: 50000000 cycles: 39460179 cumulative IPC: 1.2671 (Simulation time: 0 hr 11 min 45 sec) 

ChampSim completed all CPUs

Region of Interest Statistics

CPU 0 cumulative IPC: 1.2671 instructions: 50000000 cycles: 39460179

SHEET
IPC : 1.2671

L1D TOTAL     ACCESS:   19380694  HIT:   18275509  MISS:    1105185
L1D LOAD      ACCESS:    7260773  HIT:    6781410  MISS:     479363
L1D RFO       ACCESS:    5118752  HIT:    5039112  MISS:      79640
L1D PREFETCH  ACCESS:    7001169  HIT:    6454987  MISS:     546182
L1D WRITEBACK ACCESS:          0  HIT:          0  MISS:          0
L1D PREFETCH  REQUESTED:    7304963  ISSUED:    7205914  USEFUL:     275941  USELESS:     270254
L1D AVERAGE MISS LATENCY: 25.8562 cycles
L1D

SHEET
L1D-total_access : 19380694
L1D-total_hit : 18275509
L1D-total_miss : 1105185
L1D-load_access : 7260773
L1D-load_hit : 6781410
L1D-load_miss : 479363
L1D-rfo_access : 5118752
L1D-rfo_hit : 5039112
L1D-rfo_miss : 79640
L1D-prefetch_access : 7001169
L1D-prefetch_hit : 6454987
L1D-prefetch_miss : 546182
L1D-writeback_access : 0
L1D-writeback_hit : 0
L1D-writeback_miss : 0
L1D-prefetch_requested : 7304963
L1D-prefetch_issued : 7205914
L1D-prefetch_useful : 275941
L1D-prefetch_useless : 270254
L1D-Avg_miss_latency : 25.8562
L1D-Morteza_fill_l2_prefetches : 0

L1I TOTAL     ACCESS:   15016059  HIT:   14270413  MISS:     745646
L1I LOAD      ACCESS:    9296848  HIT:    9122792  MISS:     174056
L1I RFO       ACCESS:          0  HIT:          0  MISS:          0
L1I PREFETCH  ACCESS:    5719211  HIT:    5147621  MISS:     571590
L1I WRITEBACK ACCESS:          0  HIT:          0  MISS:          0
L1I PREFETCH  REQUESTED:    6052759  ISSUED:    6042303  USEFUL:     375256  USELESS:     196305
L1I AVERAGE MISS LATENCY: 19.0951 cycles
L1I

SHEET
L1I-total_access : 15016059
L1I-total_hit : 14270413
L1I-total_miss : 745646
L1I-load_access : 9296848
L1I-load_hit : 9122792
L1I-load_miss : 174056
L1I-rfo_access : 0
L1I-rfo_hit : 0
L1I-rfo_miss : 0
L1I-prefetch_access : 5719211
L1I-prefetch_hit : 5147621
L1I-prefetch_miss : 571590
L1I-writeback_access : 0
L1I-writeback_hit : 0
L1I-writeback_miss : 0
L1I-prefetch_requested : 6052759
L1I-prefetch_issued : 6042303
L1I-prefetch_useful : 375256
L1I-prefetch_useless : 196305
L1I-Avg_miss_latency : 19.0951
L1I-Morteza_fill_l2_prefetches : 0

L2C TOTAL     ACCESS:    3047737  HIT:    2785607  MISS:     262130
L2C LOAD      ACCESS:     573976  HIT:     491842  MISS:      82134
L2C RFO       ACCESS:      75007  HIT:      36145  MISS:      38862
L2C PREFETCH  ACCESS:    2144988  HIT:    2004227  MISS:     140761
L2C WRITEBACK ACCESS:     253766  HIT:     253393  MISS:        373
L2C PREFETCH  REQUESTED:    2041703  ISSUED:    2041566  USEFUL:      34183  USELESS:     105992
L2C AVERAGE MISS LATENCY: 66.3094 cycles
L2C

SHEET
L2C-total_access : 3047737
L2C-total_hit : 2785607
L2C-total_miss : 262130
L2C-load_access : 573976
L2C-load_hit : 491842
L2C-load_miss : 82134
L2C-rfo_access : 75007
L2C-rfo_hit : 36145
L2C-rfo_miss : 38862
L2C-prefetch_access : 2144988
L2C-prefetch_hit : 2004227
L2C-prefetch_miss : 140761
L2C-writeback_access : 253766
L2C-writeback_hit : 253393
L2C-writeback_miss : 373
L2C-prefetch_requested : 2041703
L2C-prefetch_issued : 2041566
L2C-prefetch_useful : 34183
L2C-prefetch_useless : 105992
L2C-Avg_miss_latency : 66.3094
L2C-Morteza_fill_l2_prefetches : 950457

LLC TOTAL     ACCESS:     697520  HIT:     620456  MISS:      77064
LLC LOAD      ACCESS:      81917  HIT:      72418  MISS:       9499
LLC RFO       ACCESS:      38861  HIT:      17728  MISS:      21133
LLC PREFETCH  ACCESS:     483788  HIT:     438498  MISS:      45290
LLC WRITEBACK ACCESS:      92954  HIT:      91812  MISS:       1142
LLC PREFETCH  REQUESTED:          0  ISSUED:          0  USEFUL:      11954  USELESS:      34367
LLC AVERAGE MISS LATENCY: 191.067 cycles
LLC

SHEET
LLC-total_access : 697520
LLC-total_hit : 620456
LLC-total_miss : 77064
LLC-load_access : 81917
LLC-load_hit : 72418
LLC-load_miss : 9499
LLC-rfo_access : 38861
LLC-rfo_hit : 17728
LLC-rfo_miss : 21133
LLC-prefetch_access : 483788
LLC-prefetch_hit : 438498
LLC-prefetch_miss : 45290
LLC-writeback_access : 92954
LLC-writeback_hit : 91812
LLC-writeback_miss : 1142
LLC-prefetch_requested : 0
LLC-prefetch_issued : 0
LLC-prefetch_useful : 11954
LLC-prefetch_useless : 34367
LLC-Avg_miss_latency : 191.067
LLC-Morteza_fill_l2_prefetches : 320769

Major fault: 0 Minor fault: 6984



Printing Logs
statHeadFound: 887272
statHeadMissing: 1078992
statStreamBufferHit: 13249151
statPrefetchEntryFound: 3964959
statCompactorMatch: 13800069
statStreamTrackerLookup: 15215415
statRecord: 1415346
statGetPointer: 1966264
statEnqueuePrefetch: 12645486
statPrefetchQueueIsFull: 3855
StreamBufferHitRate: 0.870772
Regions' size: 11747
next_region_correct: 900869
next_region_wrong: 502712
next_region_correct_prediction: 0.641836
statStreamBufferLookups: 1095509880
statL1iLookups: 101163888
statCompactorLookups: 547754940
morteza: start

SHEET
mana_table_access_counter : 2117434
mana_table_multiple_access_counter : 4197762
hobp_table_access_counter : 25433215
sab_access_counter : 17214110
srq_access_counter : 13728276

morteza: end
CPU 0 L1D next line prefetcher final stats

DRAM Statistics
 CHANNEL 0
 RQ ROW_BUFFER_HIT:      20228  ROW_BUFFER_MISS:      55691
 DBUS_CONGESTED:      41490
 WQ ROW_BUFFER_HIT:       4372  ROW_BUFFER_MISS:      24238  FULL:          0

 AVG_CONGESTED_CYCLE: 6

CPU 0 Branch Prediction Accuracy: 95.8872% MPKI: 9.67286 Average ROB Occupancy at Mispredict: 64.8371

Branch types
NOT_BRANCH: 38240102 76.4802%
BRANCH_DIRECT_JUMP: 653296 1.30659%
BRANCH_INDIRECT: 37098 0.074196%
BRANCH_CONDITIONAL: 8897819 17.7956%
BRANCH_DIRECT_CALL: 992620 1.98524%
BRANCH_INDIRECT_CALL: 93046 0.186092%
BRANCH_RETURN: 1085674 2.17135%
BRANCH_OTHER: 0 0%

