Initialize SIGNATURE TABLE
ST_SET: 1
ST_WAY: 256
ST_TAG_BIT: 16
ST_TAG_MASK: ffff

Initialize PATTERN TABLE
PT_SET: 512
PT_WAY: 4
SIG_DELTA_BIT: 7
C_SIG_BIT: 4
C_DELTA_BIT: 4

Initialize PREFETCH FILTER
FILTER_SET: 1024
MANA initialize 
tds: 2 tdm: 4
size MANA SINGLE: 74 KB
size MANA NULTIPLE: 43 KB
size HOBPT: 5 KB
size SRQ: 0.14502 KB
size SABs: 0.290039 KB
size prefetch queue: 0.453125 KB
total: 122.888 KB

*** ChampSim Multicore Out-of-Order Simulator ***

Warmup Instructions: 50000000
Simulation Instructions: 50000000
Number of CPUs: 1
LLC sets: 2048
LLC ways: 16
Off-chip DRAM Size: 4096 MB Channels: 1 Width: 64-bit Data Rate: 3200 MT/s

CPU 0 runs /home/mbaradaran/ChampSim/dpc3_traces/spec_gcc_002.champsimtrace.xz
CPU 0 L1D next line prefetcher
Heartbeat CPU 0 instructions: 10000002 cycles: 3544801 heartbeat IPC: 2.82103 cumulative IPC: 2.82103 (Simulation time: 0 hr 1 min 23 sec) 
Heartbeat CPU 0 instructions: 20000000 cycles: 7118649 heartbeat IPC: 2.7981 cumulative IPC: 2.80952 (Simulation time: 0 hr 2 min 40 sec) 
Heartbeat CPU 0 instructions: 30000000 cycles: 10739391 heartbeat IPC: 2.76186 cumulative IPC: 2.79345 (Simulation time: 0 hr 4 min 2 sec) 
Heartbeat CPU 0 instructions: 40000000 cycles: 14287798 heartbeat IPC: 2.81817 cumulative IPC: 2.79959 (Simulation time: 0 hr 5 min 9 sec) 
Heartbeat CPU 0 instructions: 50000002 cycles: 17765656 heartbeat IPC: 2.87533 cumulative IPC: 2.81442 (Simulation time: 0 hr 6 min 20 sec) 

Warmup complete CPU 0 instructions: 50000002 cycles: 17765656 (Simulation time: 0 hr 6 min 20 sec) 

Heartbeat CPU 0 instructions: 60000001 cycles: 54991120 heartbeat IPC: 0.268633 cumulative IPC: 0.268633 (Simulation time: 0 hr 8 min 48 sec) 
Heartbeat CPU 0 instructions: 70000001 cycles: 87005742 heartbeat IPC: 0.312357 cumulative IPC: 0.28885 (Simulation time: 0 hr 11 min 1 sec) 
Heartbeat CPU 0 instructions: 80000002 cycles: 135828653 heartbeat IPC: 0.204822 cumulative IPC: 0.254102 (Simulation time: 0 hr 13 min 54 sec) 
Heartbeat CPU 0 instructions: 90000001 cycles: 180029568 heartbeat IPC: 0.22624 cumulative IPC: 0.246512 (Simulation time: 0 hr 16 min 34 sec) 
Heartbeat CPU 0 instructions: 100000000 cycles: 208700835 heartbeat IPC: 0.348781 cumulative IPC: 0.261869 (Simulation time: 0 hr 18 min 30 sec) 
Finished CPU 0 instructions: 50000002 cycles: 190935187 cumulative IPC: 0.261869 (Simulation time: 0 hr 18 min 30 sec) 

ChampSim completed all CPUs

Region of Interest Statistics

CPU 0 cumulative IPC: 0.261869 instructions: 50000002 cycles: 190935187

SHEET
IPC : 0.261869

L1D TOTAL     ACCESS:   18392135  HIT:   13158459  MISS:    5233676
L1D LOAD      ACCESS:    6411972  HIT:    5370385  MISS:    1041587
L1D RFO       ACCESS:    7059376  HIT:    3458714  MISS:    3600662
L1D PREFETCH  ACCESS:    4920787  HIT:    4329360  MISS:     591427
L1D WRITEBACK ACCESS:          0  HIT:          0  MISS:          0
L1D PREFETCH  REQUESTED:    6432435  ISSUED:    6363933  USEFUL:     431649  USELESS:     159994
L1D AVERAGE MISS LATENCY: 331.369 cycles
L1D

SHEET
L1D-total_access : 18392135
L1D-total_hit : 13158459
L1D-total_miss : 5233676
L1D-load_access : 6411972
L1D-load_hit : 5370385
L1D-load_miss : 1041587
L1D-rfo_access : 7059376
L1D-rfo_hit : 3458714
L1D-rfo_miss : 3600662
L1D-prefetch_access : 4920787
L1D-prefetch_hit : 4329360
L1D-prefetch_miss : 591427
L1D-writeback_access : 0
L1D-writeback_hit : 0
L1D-writeback_miss : 0
L1D-prefetch_requested : 6432435
L1D-prefetch_issued : 6363933
L1D-prefetch_useful : 431649
L1D-prefetch_useless : 159994
L1D-Avg_miss_latency : 331.369
L1D-Morteza_fill_l2_prefetches : 0

L1I TOTAL     ACCESS:   15454225  HIT:   14508879  MISS:     945346
L1I LOAD      ACCESS:   12071107  HIT:   11829125  MISS:     241982
L1I RFO       ACCESS:          0  HIT:          0  MISS:          0
L1I PREFETCH  ACCESS:    3383118  HIT:    2679754  MISS:     703364
L1I WRITEBACK ACCESS:          0  HIT:          0  MISS:          0
L1I PREFETCH  REQUESTED:    3805955  ISSUED:    3705963  USEFUL:     457144  USELESS:     246224
L1I AVERAGE MISS LATENCY: 55.0975 cycles
L1I

SHEET
L1I-total_access : 15454225
L1I-total_hit : 14508879
L1I-total_miss : 945346
L1I-load_access : 12071107
L1I-load_hit : 11829125
L1I-load_miss : 241982
L1I-rfo_access : 0
L1I-rfo_hit : 0
L1I-rfo_miss : 0
L1I-prefetch_access : 3383118
L1I-prefetch_hit : 2679754
L1I-prefetch_miss : 703364
L1I-writeback_access : 0
L1I-writeback_hit : 0
L1I-writeback_miss : 0
L1I-prefetch_requested : 3805955
L1I-prefetch_issued : 3705963
L1I-prefetch_useful : 457144
L1I-prefetch_useless : 246224
L1I-Avg_miss_latency : 55.0975
L1I-Morteza_fill_l2_prefetches : 0

L2C TOTAL     ACCESS:   10331369  HIT:    5032992  MISS:    5298377
L2C LOAD      ACCESS:     417434  HIT:     210892  MISS:     206542
L2C RFO       ACCESS:    3599121  HIT:      12125  MISS:    3586996
L2C PREFETCH  ACCESS:    2589307  HIT:    1084563  MISS:    1504744
L2C WRITEBACK ACCESS:    3725507  HIT:    3725412  MISS:         95
L2C PREFETCH  REQUESTED:    3252504  ISSUED:    3252438  USEFUL:      56207  USELESS:    1448758
L2C AVERAGE MISS LATENCY: 339.366 cycles
L2C

SHEET
L2C-total_access : 10331369
L2C-total_hit : 5032992
L2C-total_miss : 5298377
L2C-load_access : 417434
L2C-load_hit : 210892
L2C-load_miss : 206542
L2C-rfo_access : 3599121
L2C-rfo_hit : 12125
L2C-rfo_miss : 3586996
L2C-prefetch_access : 2589307
L2C-prefetch_hit : 1084563
L2C-prefetch_miss : 1504744
L2C-writeback_access : 3725507
L2C-writeback_hit : 3725412
L2C-writeback_miss : 95
L2C-prefetch_requested : 3252504
L2C-prefetch_issued : 3252438
L2C-prefetch_useful : 56207
L2C-prefetch_useless : 1448758
L2C-Avg_miss_latency : 339.366
L2C-Morteza_fill_l2_prefetches : 324573

LLC TOTAL     ACCESS:   10026401  HIT:    6340377  MISS:    3686024
LLC LOAD      ACCESS:     206381  HIT:     131855  MISS:      74526
LLC RFO       ACCESS:    3586997  HIT:     669386  MISS:    2917611
LLC PREFETCH  ACCESS:    2563783  HIT:    1869898  MISS:     693885
LLC WRITEBACK ACCESS:    3669240  HIT:    3669238  MISS:          2
LLC PREFETCH  REQUESTED:          0  ISSUED:          0  USEFUL:     163248  USELESS:     527861
LLC AVERAGE MISS LATENCY: 465.468 cycles
LLC

SHEET
LLC-total_access : 10026401
LLC-total_hit : 6340377
LLC-total_miss : 3686024
LLC-load_access : 206381
LLC-load_hit : 131855
LLC-load_miss : 74526
LLC-rfo_access : 3586998
LLC-rfo_hit : 669386
LLC-rfo_miss : 2917612
LLC-prefetch_access : 2563783
LLC-prefetch_hit : 1869898
LLC-prefetch_miss : 693885
LLC-writeback_access : 3669240
LLC-writeback_hit : 3669238
LLC-writeback_miss : 2
LLC-prefetch_requested : 0
LLC-prefetch_issued : 0
LLC-prefetch_useful : 163248
LLC-prefetch_useless : 527861
LLC-Avg_miss_latency : 465.468
LLC-Morteza_fill_l2_prefetches : 1056719

Major fault: 0 Minor fault: 4238



Printing Logs
statHeadFound: 487451
statHeadMissing: 4508779
statStreamBufferHit: 8108665
statPrefetchEntryFound: 2321356
statCompactorMatch: 12211032
statStreamTrackerLookup: 13104895
statRecord: 893863
statGetPointer: 4996230
statEnqueuePrefetch: 7114103
statPrefetchQueueIsFull: 528
StreamBufferHitRate: 0.618751
Regions' size: 1479
next_region_correct: 528486
next_region_wrong: 363880
next_region_correct_prediction: 0.59223
statStreamBufferLookups: 943552440
statL1iLookups: 56912824
statCompactorLookups: 471776220
morteza: start

SHEET
mana_table_access_counter : 1229424
mana_table_multiple_access_counter : 2476300
hobp_table_access_counter : 45871351
sab_access_counter : 10430021
srq_access_counter : 12234928

morteza: end
CPU 0 L1D next line prefetcher final stats

DRAM Statistics
 CHANNEL 0
 RQ ROW_BUFFER_HIT:     988081  ROW_BUFFER_MISS:    2696609
 DBUS_CONGESTED:    5390978
 WQ ROW_BUFFER_HIT:     917858  ROW_BUFFER_MISS:    2183444  FULL:          0

 AVG_CONGESTED_CYCLE: 6

CPU 0 Branch Prediction Accuracy: 99.5987% MPKI: 0.82446 Average ROB Occupancy at Mispredict: 117.857

Branch types
NOT_BRANCH: 39726808 79.4536%
BRANCH_DIRECT_JUMP: 391439 0.782878%
BRANCH_INDIRECT: 62076 0.124152%
BRANCH_CONDITIONAL: 8421542 16.8431%
BRANCH_DIRECT_CALL: 672962 1.34592%
BRANCH_INDIRECT_CALL: 26115 0.05223%
BRANCH_RETURN: 699082 1.39816%
BRANCH_OTHER: 0 0%

