Initialize SIGNATURE TABLE
ST_SET: 1
ST_WAY: 256
ST_TAG_BIT: 16
ST_TAG_MASK: ffff

Initialize PATTERN TABLE
PT_SET: 512
PT_WAY: 4
SIG_DELTA_BIT: 7
C_SIG_BIT: 4
C_DELTA_BIT: 4

Initialize PREFETCH FILTER
FILTER_SET: 1024
MANA initialize 
tds: 2 tdm: 4
size MANA SINGLE: 74 KB
size MANA NULTIPLE: 43 KB
size HOBPT: 5 KB
size SRQ: 0.14502 KB
size SABs: 0.290039 KB
size prefetch queue: 0.453125 KB
total: 122.888 KB

*** ChampSim Multicore Out-of-Order Simulator ***

Warmup Instructions: 50000000
Simulation Instructions: 50000000
Number of CPUs: 1
LLC sets: 2048
LLC ways: 16
Off-chip DRAM Size: 4096 MB Channels: 1 Width: 64-bit Data Rate: 3200 MT/s

CPU 0 runs /home/mbaradaran/ChampSim/dpc3_traces/spec_gcc_003.champsimtrace.xz
CPU 0 L1D next line prefetcher
Heartbeat CPU 0 instructions: 10000001 cycles: 3483527 heartbeat IPC: 2.87065 cumulative IPC: 2.87065 (Simulation time: 0 hr 1 min 14 sec) 
Heartbeat CPU 0 instructions: 20000000 cycles: 6957069 heartbeat IPC: 2.87891 cumulative IPC: 2.87477 (Simulation time: 0 hr 2 min 21 sec) 
Heartbeat CPU 0 instructions: 30000002 cycles: 10400763 heartbeat IPC: 2.90386 cumulative IPC: 2.8844 (Simulation time: 0 hr 3 min 30 sec) 
Heartbeat CPU 0 instructions: 40000000 cycles: 13868805 heartbeat IPC: 2.88347 cumulative IPC: 2.88417 (Simulation time: 0 hr 4 min 38 sec) 
Heartbeat CPU 0 instructions: 50000001 cycles: 17177819 heartbeat IPC: 3.02205 cumulative IPC: 2.91073 (Simulation time: 0 hr 5 min 43 sec) 

Warmup complete CPU 0 instructions: 50000001 cycles: 17177819 (Simulation time: 0 hr 5 min 43 sec) 

Heartbeat CPU 0 instructions: 60000000 cycles: 55742645 heartbeat IPC: 0.259304 cumulative IPC: 0.259304 (Simulation time: 0 hr 8 min 14 sec) 
Heartbeat CPU 0 instructions: 70000000 cycles: 96536942 heartbeat IPC: 0.245132 cumulative IPC: 0.252019 (Simulation time: 0 hr 10 min 45 sec) 
Heartbeat CPU 0 instructions: 80000002 cycles: 138364870 heartbeat IPC: 0.239075 cumulative IPC: 0.247551 (Simulation time: 0 hr 13 min 14 sec) 
Heartbeat CPU 0 instructions: 90000002 cycles: 173761974 heartbeat IPC: 0.282509 cumulative IPC: 0.255454 (Simulation time: 0 hr 15 min 24 sec) 
Heartbeat CPU 0 instructions: 100000000 cycles: 217910593 heartbeat IPC: 0.226508 cumulative IPC: 0.249087 (Simulation time: 0 hr 17 min 55 sec) 
Finished CPU 0 instructions: 50000000 cycles: 200732775 cumulative IPC: 0.249087 (Simulation time: 0 hr 17 min 55 sec) 

ChampSim completed all CPUs

Region of Interest Statistics

CPU 0 cumulative IPC: 0.249087 instructions: 50000000 cycles: 200732775

SHEET
IPC : 0.249087

L1D TOTAL     ACCESS:   17046677  HIT:   11322273  MISS:    5724404
L1D LOAD      ACCESS:    4653880  HIT:    4271374  MISS:     382506
L1D RFO       ACCESS:    8225284  HIT:    3173613  MISS:    5051671
L1D PREFETCH  ACCESS:    4167513  HIT:    3877286  MISS:     290227
L1D WRITEBACK ACCESS:          0  HIT:          0  MISS:          0
L1D PREFETCH  REQUESTED:    4671874  ISSUED:    4613978  USEFUL:     152678  USELESS:     137729
L1D AVERAGE MISS LATENCY: 473.344 cycles
L1D

SHEET
L1D-total_access : 17046677
L1D-total_hit : 11322273
L1D-total_miss : 5724404
L1D-load_access : 4653880
L1D-load_hit : 4271374
L1D-load_miss : 382506
L1D-rfo_access : 8225284
L1D-rfo_hit : 3173613
L1D-rfo_miss : 5051671
L1D-prefetch_access : 4167513
L1D-prefetch_hit : 3877286
L1D-prefetch_miss : 290227
L1D-writeback_access : 0
L1D-writeback_hit : 0
L1D-writeback_miss : 0
L1D-prefetch_requested : 4671874
L1D-prefetch_issued : 4613978
L1D-prefetch_useful : 152678
L1D-prefetch_useless : 137729
L1D-Avg_miss_latency : 473.344
L1D-Morteza_fill_l2_prefetches : 0

L1I TOTAL     ACCESS:   14759806  HIT:   13549865  MISS:    1209941
L1I LOAD      ACCESS:   11241090  HIT:   10935461  MISS:     305629
L1I RFO       ACCESS:          0  HIT:          0  MISS:          0
L1I PREFETCH  ACCESS:    3518716  HIT:    2614404  MISS:     904312
L1I WRITEBACK ACCESS:          0  HIT:          0  MISS:          0
L1I PREFETCH  REQUESTED:    3978821  ISSUED:    3898695  USEFUL:     573205  USELESS:     331052
L1I AVERAGE MISS LATENCY: 46.6956 cycles
L1I

SHEET
L1I-total_access : 14759806
L1I-total_hit : 13549865
L1I-total_miss : 1209941
L1I-load_access : 11241090
L1I-load_hit : 10935461
L1I-load_miss : 305629
L1I-rfo_access : 0
L1I-rfo_hit : 0
L1I-rfo_miss : 0
L1I-prefetch_access : 3518716
L1I-prefetch_hit : 2614404
L1I-prefetch_miss : 904312
L1I-writeback_access : 0
L1I-writeback_hit : 0
L1I-writeback_miss : 0
L1I-prefetch_requested : 3978821
L1I-prefetch_issued : 3898695
L1I-prefetch_useful : 573205
L1I-prefetch_useless : 331052
L1I-Avg_miss_latency : 46.6956
L1I-Morteza_fill_l2_prefetches : 0

L2C TOTAL     ACCESS:   12452774  HIT:    6411090  MISS:    6041684
L2C LOAD      ACCESS:     413057  HIT:     176008  MISS:     237049
L2C RFO       ACCESS:    5049920  HIT:       6496  MISS:    5043424
L2C PREFETCH  ACCESS:    1831892  HIT:    1070821  MISS:     761071
L2C WRITEBACK ACCESS:    5157905  HIT:    5157765  MISS:        140
L2C PREFETCH  REQUESTED:    2150055  ISSUED:    2149967  USEFUL:      70361  USELESS:     687738
L2C AVERAGE MISS LATENCY: 444.542 cycles
L2C

SHEET
L2C-total_access : 12452774
L2C-total_hit : 6411090
L2C-total_miss : 6041684
L2C-load_access : 413057
L2C-load_hit : 176008
L2C-load_miss : 237049
L2C-rfo_access : 5049920
L2C-rfo_hit : 6496
L2C-rfo_miss : 5043424
L2C-prefetch_access : 1831892
L2C-prefetch_hit : 1070821
L2C-prefetch_miss : 761071
L2C-writeback_access : 5157905
L2C-writeback_hit : 5157765
L2C-writeback_miss : 140
L2C-prefetch_requested : 2150055
L2C-prefetch_issued : 2149967
L2C-prefetch_useful : 70361
L2C-prefetch_useless : 687738
L2C-Avg_miss_latency : 444.542
L2C-Morteza_fill_l2_prefetches : 319324

LLC TOTAL     ACCESS:   11976378  HIT:    7535405  MISS:    4440973
LLC LOAD      ACCESS:     237018  HIT:     181312  MISS:      55706
LLC RFO       ACCESS:    5043425  HIT:     890304  MISS:    4153121
LLC PREFETCH  ACCESS:    1562279  HIT:    1330133  MISS:     232146
LLC WRITEBACK ACCESS:    5133656  HIT:    5133656  MISS:          0
LLC PREFETCH  REQUESTED:          0  ISSUED:          0  USEFUL:      19369  USELESS:     212570
LLC AVERAGE MISS LATENCY: 570.191 cycles
LLC

SHEET
LLC-total_access : 11976378
LLC-total_hit : 7535405
LLC-total_miss : 4440973
LLC-load_access : 237018
LLC-load_hit : 181312
LLC-load_miss : 55706
LLC-rfo_access : 5043426
LLC-rfo_hit : 890304
LLC-rfo_miss : 4153122
LLC-prefetch_access : 1562279
LLC-prefetch_hit : 1330133
LLC-prefetch_miss : 232146
LLC-writeback_access : 5133656
LLC-writeback_hit : 5133656
LLC-writeback_miss : 0
LLC-prefetch_requested : 0
LLC-prefetch_issued : 0
LLC-prefetch_useful : 19369
LLC-prefetch_useless : 212570
LLC-Avg_miss_latency : 570.191
LLC-Morteza_fill_l2_prefetches : 806402

Major fault: 0 Minor fault: 2915



Printing Logs
statHeadFound: 514862
statHeadMissing: 2040661
statStreamBufferHit: 7408365
statPrefetchEntryFound: 2424278
statCompactorMatch: 8999918
statStreamTrackerLookup: 9963888
statRecord: 963970
statGetPointer: 2555523
statEnqueuePrefetch: 7363574
statPrefetchQueueIsFull: 193
StreamBufferHitRate: 0.743522
Regions' size: 1475
next_region_correct: 560298
next_region_wrong: 402179
next_region_correct_prediction: 0.582142
statStreamBufferLookups: 717399936
statL1iLookups: 58908592
statCompactorLookups: 358699968
morteza: start

SHEET
mana_table_access_counter : 1382757
mana_table_multiple_access_counter : 2522955
hobp_table_access_counter : 26728515
sab_access_counter : 9832643
srq_access_counter : 9330539

morteza: end
CPU 0 L1D next line prefetcher final stats

DRAM Statistics
 CHANNEL 0
 RQ ROW_BUFFER_HIT:    1337280  ROW_BUFFER_MISS:    3103589
 DBUS_CONGESTED:    7697171
 WQ ROW_BUFFER_HIT:    1126556  ROW_BUFFER_MISS:    3053402  FULL:          0

 AVG_CONGESTED_CYCLE: 6

CPU 0 Branch Prediction Accuracy: 99.665% MPKI: 0.78342 Average ROB Occupancy at Mispredict: 101.122

Branch types
NOT_BRANCH: 38305862 76.6117%
BRANCH_DIRECT_JUMP: 384282 0.768564%
BRANCH_INDIRECT: 71949 0.143898%
BRANCH_CONDITIONAL: 9879826 19.7597%
BRANCH_DIRECT_CALL: 650586 1.30117%
BRANCH_INDIRECT_CALL: 28456 0.056912%
BRANCH_RETURN: 679046 1.35809%
BRANCH_OTHER: 0 0%

