Initialize SIGNATURE TABLE
ST_SET: 1
ST_WAY: 256
ST_TAG_BIT: 16
ST_TAG_MASK: ffff

Initialize PATTERN TABLE
PT_SET: 512
PT_WAY: 4
SIG_DELTA_BIT: 7
C_SIG_BIT: 4
C_DELTA_BIT: 4

Initialize PREFETCH FILTER
FILTER_SET: 1024

*** ChampSim Multicore Out-of-Order Simulator ***

Warmup Instructions: 50000000
Simulation Instructions: 50000000
Number of CPUs: 1
LLC sets: 2048
LLC ways: 16
Off-chip DRAM Size: 4096 MB Channels: 1 Width: 64-bit Data Rate: 3200 MT/s

CPU 0 runs /home/mbaradaran/ChampSim/dpc3_traces/server_026.champsimtrace.xz
CPU 0 L1D next line prefetcher
Heartbeat CPU 0 instructions: 10000000 cycles: 3525663 heartbeat IPC: 2.83635 cumulative IPC: 2.83635 (Simulation time: 0 hr 1 min 23 sec) 
Heartbeat CPU 0 instructions: 20000002 cycles: 7056832 heartbeat IPC: 2.83192 cumulative IPC: 2.83413 (Simulation time: 0 hr 2 min 48 sec) 
Heartbeat CPU 0 instructions: 30000000 cycles: 10578134 heartbeat IPC: 2.83986 cumulative IPC: 2.83604 (Simulation time: 0 hr 4 min 15 sec) 
Heartbeat CPU 0 instructions: 40000003 cycles: 14107924 heartbeat IPC: 2.83303 cumulative IPC: 2.83529 (Simulation time: 0 hr 5 min 41 sec) 
Heartbeat CPU 0 instructions: 50000000 cycles: 17630953 heartbeat IPC: 2.83847 cumulative IPC: 2.83592 (Simulation time: 0 hr 7 min 9 sec) 

Warmup complete CPU 0 instructions: 50000004 cycles: 17630954 (Simulation time: 0 hr 7 min 9 sec) 

*** Reached end of trace for Core: 0 Repeating trace: /home/mbaradaran/ChampSim/dpc3_traces/server_026.champsimtrace.xz
Heartbeat CPU 0 instructions: 60000000 cycles: 26972174 heartbeat IPC: 1.07052 cumulative IPC: 1.07052 (Simulation time: 0 hr 8 min 21 sec) 
Heartbeat CPU 0 instructions: 70000003 cycles: 36239238 heartbeat IPC: 1.07909 cumulative IPC: 1.07479 (Simulation time: 0 hr 9 min 29 sec) 
Heartbeat CPU 0 instructions: 80000003 cycles: 45652855 heartbeat IPC: 1.06229 cumulative IPC: 1.07059 (Simulation time: 0 hr 10 min 36 sec) 
Heartbeat CPU 0 instructions: 90000002 cycles: 55007526 heartbeat IPC: 1.06898 cumulative IPC: 1.07019 (Simulation time: 0 hr 11 min 42 sec) 
Heartbeat CPU 0 instructions: 100000000 cycles: 64420972 heartbeat IPC: 1.06231 cumulative IPC: 1.0686 (Simulation time: 0 hr 12 min 45 sec) 
Finished CPU 0 instructions: 50000000 cycles: 46790019 cumulative IPC: 1.0686 (Simulation time: 0 hr 12 min 45 sec) 

ChampSim completed all CPUs

Region of Interest Statistics

CPU 0 cumulative IPC: 1.0686 instructions: 50000000 cycles: 46790019

SHEET
IPC : 1.0686

L1D TOTAL     ACCESS:   21654589  HIT:   20007891  MISS:    1646698
L1D LOAD      ACCESS:    7839364  HIT:    7117438  MISS:     721926
L1D RFO       ACCESS:    6297571  HIT:    6009705  MISS:     287866
L1D PREFETCH  ACCESS:    7517654  HIT:    6880748  MISS:     636906
L1D WRITEBACK ACCESS:          0  HIT:          0  MISS:          0
L1D PREFETCH  REQUESTED:    7887776  ISSUED:    7758589  USEFUL:     158118  USELESS:     478800
L1D AVERAGE MISS LATENCY: 23.1118 cycles
L1D

SHEET
L1D-total_access : 21654589
L1D-total_hit : 20007891
L1D-total_miss : 1646698
L1D-load_access : 7839364
L1D-load_hit : 7117438
L1D-load_miss : 721926
L1D-rfo_access : 6297571
L1D-rfo_hit : 6009705
L1D-rfo_miss : 287866
L1D-prefetch_access : 7517654
L1D-prefetch_hit : 6880748
L1D-prefetch_miss : 636906
L1D-writeback_access : 0
L1D-writeback_hit : 0
L1D-writeback_miss : 0
L1D-prefetch_requested : 7887776
L1D-prefetch_issued : 7758589
L1D-prefetch_useful : 158118
L1D-prefetch_useless : 478800
L1D-Avg_miss_latency : 23.1118
L1D-Morteza_fill_l2_prefetches : 0

L1I TOTAL     ACCESS:   10353835  HIT:    7482630  MISS:    2871205
L1I LOAD      ACCESS:    9226579  HIT:    7150200  MISS:    2076379
L1I RFO       ACCESS:          0  HIT:          0  MISS:          0
L1I PREFETCH  ACCESS:    1127256  HIT:     332430  MISS:     794826
L1I WRITEBACK ACCESS:          0  HIT:          0  MISS:          0
L1I PREFETCH  REQUESTED:    1779231  ISSUED:    1779231  USEFUL:     744644  USELESS:      50200
L1I AVERAGE MISS LATENCY: 14.9836 cycles
L1I

SHEET
L1I-total_access : 10353835
L1I-total_hit : 7482630
L1I-total_miss : 2871205
L1I-load_access : 9226579
L1I-load_hit : 7150200
L1I-load_miss : 2076379
L1I-rfo_access : 0
L1I-rfo_hit : 0
L1I-rfo_miss : 0
L1I-prefetch_access : 1127256
L1I-prefetch_hit : 332430
L1I-prefetch_miss : 794826
L1I-writeback_access : 0
L1I-writeback_hit : 0
L1I-writeback_miss : 0
L1I-prefetch_requested : 1779231
L1I-prefetch_issued : 1779231
L1I-prefetch_useful : 744644
L1I-prefetch_useless : 50200
L1I-Avg_miss_latency : 14.9836
L1I-Morteza_fill_l2_prefetches : 0

L2C TOTAL     ACCESS:    6880982  HIT:    6118428  MISS:     762554
L2C LOAD      ACCESS:    2231662  HIT:    1854491  MISS:     377171
L2C RFO       ACCESS:     285130  HIT:     192023  MISS:      93107
L2C PREFETCH  ACCESS:    3803029  HIT:    3513619  MISS:     289410
L2C WRITEBACK ACCESS:     561161  HIT:     558295  MISS:       2866
L2C PREFETCH  REQUESTED:    4513021  ISSUED:    4511713  USEFUL:      43778  USELESS:     245632
L2C AVERAGE MISS LATENCY: 37.0407 cycles
L2C

SHEET
L2C-total_access : 6880982
L2C-total_hit : 6118428
L2C-total_miss : 762554
L2C-load_access : 2231662
L2C-load_hit : 1854491
L2C-load_miss : 377171
L2C-rfo_access : 285130
L2C-rfo_hit : 192023
L2C-rfo_miss : 93107
L2C-prefetch_access : 3803029
L2C-prefetch_hit : 3513619
L2C-prefetch_miss : 289410
L2C-writeback_access : 561161
L2C-writeback_hit : 558295
L2C-writeback_miss : 2866
L2C-prefetch_requested : 4513021
L2C-prefetch_issued : 4511713
L2C-prefetch_useful : 43778
L2C-prefetch_useless : 245632
L2C-Avg_miss_latency : 37.0407
L2C-Morteza_fill_l2_prefetches : 1844432

LLC TOTAL     ACCESS:    2255887  HIT:    2221831  MISS:      34056
LLC LOAD      ACCESS:     377009  HIT:     372778  MISS:       4231
LLC RFO       ACCESS:      93105  HIT:      78794  MISS:      14311
LLC PREFETCH  ACCESS:    1629161  HIT:    1613860  MISS:      15301
LLC WRITEBACK ACCESS:     156612  HIT:     156399  MISS:        213
LLC PREFETCH  REQUESTED:          0  ISSUED:          0  USEFUL:       1395  USELESS:      14316
LLC AVERAGE MISS LATENCY: 184.854 cycles
LLC

SHEET
LLC-total_access : 2255887
LLC-total_hit : 2221831
LLC-total_miss : 34056
LLC-load_access : 377009
LLC-load_hit : 372778
LLC-load_miss : 4231
LLC-rfo_access : 93105
LLC-rfo_hit : 78794
LLC-rfo_miss : 14311
LLC-prefetch_access : 1629161
LLC-prefetch_hit : 1613860
LLC-prefetch_miss : 15301
LLC-writeback_access : 156612
LLC-writeback_hit : 156399
LLC-writeback_miss : 213
LLC-prefetch_requested : 0
LLC-prefetch_issued : 0
LLC-prefetch_useful : 1395
LLC-prefetch_useless : 14316
LLC-Avg_miss_latency : 184.854
LLC-Morteza_fill_l2_prefetches : 1343259

Major fault: 0 Minor fault: 2165
num_of_hits: 4650348
num_of_misses: 4200584
hit_rate: 0.525408
observed_signatures: 7721
RAS addresses: 1967
branch_addresses: 10002
RAS match: 2205282	 RAS_mismatches: 3815	 accuracy: 0.998273

 morteza stats start 

SHEET
RAS_access_cntr : 21954451
current_block_access_cntr : 42464536
table_access_cntr : 6751048
last_block_access_cntr : 42464536
last_signature_access_cntr : 8836422
miss_log_access_cntr : 7254456
prefetch_queue_access_cntr : 7944445
signature_access_cntr : 13254633
miss log count : 36


morteza stats endCPU 0 L1D next line prefetcher final stats

DRAM Statistics
 CHANNEL 0
 RQ ROW_BUFFER_HIT:      12141  ROW_BUFFER_MISS:      21701
 DBUS_CONGESTED:      22907
 WQ ROW_BUFFER_HIT:       1563  ROW_BUFFER_MISS:      14112  FULL:          0

 AVG_CONGESTED_CYCLE: 6

CPU 0 Branch Prediction Accuracy: 99.822% MPKI: 0.32584 Average ROB Occupancy at Mispredict: 97.2862

Branch types
NOT_BRANCH: 40848550 81.6971%
BRANCH_DIRECT_JUMP: 522045 1.04409%
BRANCH_INDIRECT: 204034 0.408068%
BRANCH_CONDITIONAL: 6212957 12.4259%
BRANCH_DIRECT_CALL: 932391 1.86478%
BRANCH_INDIRECT_CALL: 173764 0.347528%
BRANCH_RETURN: 1106152 2.2123%
BRANCH_OTHER: 0 0%

