Initialize SIGNATURE TABLE
ST_SET: 1
ST_WAY: 256
ST_TAG_BIT: 16
ST_TAG_MASK: ffff

Initialize PATTERN TABLE
PT_SET: 512
PT_WAY: 4
SIG_DELTA_BIT: 7
C_SIG_BIT: 4
C_DELTA_BIT: 4

Initialize PREFETCH FILTER
FILTER_SET: 1024

*** ChampSim Multicore Out-of-Order Simulator ***

Warmup Instructions: 50000000
Simulation Instructions: 50000000
Number of CPUs: 1
LLC sets: 2048
LLC ways: 16
Off-chip DRAM Size: 4096 MB Channels: 1 Width: 64-bit Data Rate: 3200 MT/s

CPU 0 runs /home/mbaradaran/ChampSim/dpc3_traces/server_027.champsimtrace.xz
CPU 0 L1D next line prefetcher
Heartbeat CPU 0 instructions: 10000001 cycles: 3526839 heartbeat IPC: 2.8354 cumulative IPC: 2.8354 (Simulation time: 0 hr 1 min 28 sec) 
Heartbeat CPU 0 instructions: 20000001 cycles: 7057767 heartbeat IPC: 2.83212 cumulative IPC: 2.83376 (Simulation time: 0 hr 2 min 52 sec) 
Heartbeat CPU 0 instructions: 30000002 cycles: 10583659 heartbeat IPC: 2.83616 cumulative IPC: 2.83456 (Simulation time: 0 hr 4 min 14 sec) 
Heartbeat CPU 0 instructions: 40000000 cycles: 14114793 heartbeat IPC: 2.83195 cumulative IPC: 2.83391 (Simulation time: 0 hr 5 min 38 sec) 
Heartbeat CPU 0 instructions: 50000001 cycles: 17639925 heartbeat IPC: 2.83677 cumulative IPC: 2.83448 (Simulation time: 0 hr 7 min 5 sec) 

Warmup complete CPU 0 instructions: 50000001 cycles: 17639925 (Simulation time: 0 hr 7 min 5 sec) 

Heartbeat CPU 0 instructions: 60000002 cycles: 27252961 heartbeat IPC: 1.04025 cumulative IPC: 1.04025 (Simulation time: 0 hr 8 min 15 sec) 
Heartbeat CPU 0 instructions: 70000003 cycles: 36661158 heartbeat IPC: 1.0629 cumulative IPC: 1.05146 (Simulation time: 0 hr 9 min 35 sec) 
Heartbeat CPU 0 instructions: 80000002 cycles: 46183602 heartbeat IPC: 1.05015 cumulative IPC: 1.05102 (Simulation time: 0 hr 10 min 48 sec) 
Heartbeat CPU 0 instructions: 90000001 cycles: 55704266 heartbeat IPC: 1.05035 cumulative IPC: 1.05085 (Simulation time: 0 hr 12 min 4 sec) 
Heartbeat CPU 0 instructions: 100000002 cycles: 65086897 heartbeat IPC: 1.0658 cumulative IPC: 1.05381 (Simulation time: 0 hr 13 min 18 sec) 
Finished CPU 0 instructions: 50000001 cycles: 47446972 cumulative IPC: 1.05381 (Simulation time: 0 hr 13 min 18 sec) 

ChampSim completed all CPUs

Region of Interest Statistics

CPU 0 cumulative IPC: 1.05381 instructions: 50000001 cycles: 47446972

SHEET
IPC : 1.05381

L1D TOTAL     ACCESS:   21868178  HIT:   20264307  MISS:    1603871
L1D LOAD      ACCESS:    7895221  HIT:    7214227  MISS:     680994
L1D RFO       ACCESS:    6348488  HIT:    6062229  MISS:     286259
L1D PREFETCH  ACCESS:    7624469  HIT:    6987851  MISS:     636618
L1D WRITEBACK ACCESS:          0  HIT:          0  MISS:          0
L1D PREFETCH  REQUESTED:    7941743  ISSUED:    7828577  USEFUL:     160291  USELESS:     476341
L1D AVERAGE MISS LATENCY: 22.8458 cycles
L1D

SHEET
L1D-total_access : 21868178
L1D-total_hit : 20264307
L1D-total_miss : 1603871
L1D-load_access : 7895221
L1D-load_hit : 7214227
L1D-load_miss : 680994
L1D-rfo_access : 6348488
L1D-rfo_hit : 6062229
L1D-rfo_miss : 286259
L1D-prefetch_access : 7624469
L1D-prefetch_hit : 6987851
L1D-prefetch_miss : 636618
L1D-writeback_access : 0
L1D-writeback_hit : 0
L1D-writeback_miss : 0
L1D-prefetch_requested : 7941743
L1D-prefetch_issued : 7828577
L1D-prefetch_useful : 160291
L1D-prefetch_useless : 476341
L1D-Avg_miss_latency : 22.8458
L1D-Morteza_fill_l2_prefetches : 0

L1I TOTAL     ACCESS:   10398765  HIT:    7478047  MISS:    2920718
L1I LOAD      ACCESS:    9235984  HIT:    7131469  MISS:    2104515
L1I RFO       ACCESS:          0  HIT:          0  MISS:          0
L1I PREFETCH  ACCESS:    1162781  HIT:     346578  MISS:     816203
L1I WRITEBACK ACCESS:          0  HIT:          0  MISS:          0
L1I PREFETCH  REQUESTED:    1818614  ISSUED:    1818614  USEFUL:     755029  USELESS:      61193
L1I AVERAGE MISS LATENCY: 15.2077 cycles
L1I

SHEET
L1I-total_access : 10398765
L1I-total_hit : 7478047
L1I-total_miss : 2920718
L1I-load_access : 9235984
L1I-load_hit : 7131469
L1I-load_miss : 2104515
L1I-rfo_access : 0
L1I-rfo_hit : 0
L1I-rfo_miss : 0
L1I-prefetch_access : 1162781
L1I-prefetch_hit : 346578
L1I-prefetch_miss : 816203
L1I-writeback_access : 0
L1I-writeback_hit : 0
L1I-writeback_miss : 0
L1I-prefetch_requested : 1818614
L1I-prefetch_issued : 1818614
L1I-prefetch_useful : 755029
L1I-prefetch_useless : 61193
L1I-Avg_miss_latency : 15.2077
L1I-Morteza_fill_l2_prefetches : 0

L2C TOTAL     ACCESS:    6840816  HIT:    6079813  MISS:     761003
L2C LOAD      ACCESS:    2231685  HIT:    1852627  MISS:     379058
L2C RFO       ACCESS:     283788  HIT:     200395  MISS:      83393
L2C PREFETCH  ACCESS:    3765954  HIT:    3470161  MISS:     295793
L2C WRITEBACK ACCESS:     559389  HIT:     556630  MISS:       2759
L2C PREFETCH  REQUESTED:    4268828  ISSUED:    4268011  USEFUL:      39032  USELESS:     256787
L2C AVERAGE MISS LATENCY: 36.6265 cycles
L2C

SHEET
L2C-total_access : 6840816
L2C-total_hit : 6079813
L2C-total_miss : 761003
L2C-load_access : 2231685
L2C-load_hit : 1852627
L2C-load_miss : 379058
L2C-rfo_access : 283788
L2C-rfo_hit : 200395
L2C-rfo_miss : 83393
L2C-prefetch_access : 3765954
L2C-prefetch_hit : 3470161
L2C-prefetch_miss : 295793
L2C-writeback_access : 559389
L2C-writeback_hit : 556630
L2C-writeback_miss : 2759
L2C-prefetch_requested : 4268828
L2C-prefetch_issued : 4268011
L2C-prefetch_useful : 39032
L2C-prefetch_useless : 256787
L2C-Avg_miss_latency : 36.6265
L2C-Morteza_fill_l2_prefetches : 1795026

LLC TOTAL     ACCESS:    2218162  HIT:    2184510  MISS:      33652
LLC LOAD      ACCESS:     378829  HIT:     374707  MISS:       4122
LLC RFO       ACCESS:      83389  HIT:      69574  MISS:      13815
LLC PREFETCH  ACCESS:    1618408  HIT:    1602887  MISS:      15521
LLC WRITEBACK ACCESS:     137536  HIT:     137342  MISS:        194
LLC PREFETCH  REQUESTED:          0  ISSUED:          0  USEFUL:       1677  USELESS:      13565
LLC AVERAGE MISS LATENCY: 180.151 cycles
LLC

SHEET
LLC-total_access : 2218162
LLC-total_hit : 2184510
LLC-total_miss : 33652
LLC-load_access : 378829
LLC-load_hit : 374707
LLC-load_miss : 4122
LLC-rfo_access : 83389
LLC-rfo_hit : 69574
LLC-rfo_miss : 13815
LLC-prefetch_access : 1618408
LLC-prefetch_hit : 1602887
LLC-prefetch_miss : 15521
LLC-writeback_access : 137536
LLC-writeback_hit : 137342
LLC-writeback_miss : 194
LLC-prefetch_requested : 0
LLC-prefetch_issued : 0
LLC-prefetch_useful : 1677
LLC-prefetch_useless : 13565
LLC-Avg_miss_latency : 180.151
LLC-Morteza_fill_l2_prefetches : 1325843

Major fault: 0 Minor fault: 2477
num_of_hits: 4712159
num_of_misses: 4177053
hit_rate: 0.530099
observed_signatures: 12004
RAS addresses: 2153
branch_addresses: 10885
RAS match: 2216083	 RAS_mismatches: 4088	 accuracy: 0.998159

 morteza stats start 

SHEET
RAS_access_cntr : 22071141
current_block_access_cntr : 42496176
table_access_cntr : 6800942
last_block_access_cntr : 42496176
last_signature_access_cntr : 8880718
miss_log_access_cntr : 7325011
prefetch_queue_access_cntr : 8040912
signature_access_cntr : 13321077
miss log count : 24


morteza stats endCPU 0 L1D next line prefetcher final stats

DRAM Statistics
 CHANNEL 0
 RQ ROW_BUFFER_HIT:      11246  ROW_BUFFER_MISS:      22212
 DBUS_CONGESTED:      22855
 WQ ROW_BUFFER_HIT:       1573  ROW_BUFFER_MISS:      14548  FULL:          0

 AVG_CONGESTED_CYCLE: 6

CPU 0 Branch Prediction Accuracy: 99.8082% MPKI: 0.35064 Average ROB Occupancy at Mispredict: 96.1262

Branch types
NOT_BRANCH: 40857228 81.7145%
BRANCH_DIRECT_JUMP: 526631 1.05326%
BRANCH_INDIRECT: 205902 0.411804%
BRANCH_CONDITIONAL: 6184014 12.368%
BRANCH_DIRECT_CALL: 938462 1.87692%
BRANCH_INDIRECT_CALL: 174486 0.348972%
BRANCH_RETURN: 1112951 2.2259%
BRANCH_OTHER: 0 0%

