Initialize SIGNATURE TABLE
ST_SET: 1
ST_WAY: 256
ST_TAG_BIT: 16
ST_TAG_MASK: ffff

Initialize PATTERN TABLE
PT_SET: 512
PT_WAY: 4
SIG_DELTA_BIT: 7
C_SIG_BIT: 4
C_DELTA_BIT: 4

Initialize PREFETCH FILTER
FILTER_SET: 1024

*** ChampSim Multicore Out-of-Order Simulator ***

Warmup Instructions: 50000000
Simulation Instructions: 50000000
Number of CPUs: 1
LLC sets: 2048
LLC ways: 16
Off-chip DRAM Size: 4096 MB Channels: 1 Width: 64-bit Data Rate: 3200 MT/s

CPU 0 runs /home/mbaradaran/ChampSim/dpc3_traces/server_010.champsimtrace.xz
CPU 0 L1D next line prefetcher
Heartbeat CPU 0 instructions: 10000000 cycles: 3196620 heartbeat IPC: 3.1283 cumulative IPC: 3.1283 (Simulation time: 0 hr 1 min 18 sec) 
Heartbeat CPU 0 instructions: 20000002 cycles: 6389774 heartbeat IPC: 3.1317 cumulative IPC: 3.13 (Simulation time: 0 hr 2 min 35 sec) 
Heartbeat CPU 0 instructions: 30000001 cycles: 9585942 heartbeat IPC: 3.12875 cumulative IPC: 3.12958 (Simulation time: 0 hr 3 min 49 sec) 
Heartbeat CPU 0 instructions: 40000000 cycles: 12778946 heartbeat IPC: 3.13185 cumulative IPC: 3.13015 (Simulation time: 0 hr 5 min 5 sec) 
Heartbeat CPU 0 instructions: 50000003 cycles: 15976959 heartbeat IPC: 3.12694 cumulative IPC: 3.12951 (Simulation time: 0 hr 6 min 19 sec) 

Warmup complete CPU 0 instructions: 50000003 cycles: 15976959 (Simulation time: 0 hr 6 min 19 sec) 

Heartbeat CPU 0 instructions: 60000000 cycles: 25979315 heartbeat IPC: 0.999764 cumulative IPC: 0.999764 (Simulation time: 0 hr 7 min 20 sec) 
Heartbeat CPU 0 instructions: 70000000 cycles: 36421154 heartbeat IPC: 0.957686 cumulative IPC: 0.978273 (Simulation time: 0 hr 8 min 22 sec) 
Heartbeat CPU 0 instructions: 80000001 cycles: 46999560 heartbeat IPC: 0.945322 cumulative IPC: 0.967037 (Simulation time: 0 hr 9 min 26 sec) 
Heartbeat CPU 0 instructions: 90000002 cycles: 57127397 heartbeat IPC: 0.987378 cumulative IPC: 0.972043 (Simulation time: 0 hr 10 min 27 sec) 
Heartbeat CPU 0 instructions: 100000003 cycles: 79063635 heartbeat IPC: 0.455867 cumulative IPC: 0.79256 (Simulation time: 0 hr 12 min 23 sec) 
Finished CPU 0 instructions: 50000000 cycles: 63086676 cumulative IPC: 0.79256 (Simulation time: 0 hr 12 min 23 sec) 

ChampSim completed all CPUs

Region of Interest Statistics

CPU 0 cumulative IPC: 0.79256 instructions: 50000000 cycles: 63086676

SHEET
IPC : 0.79256

L1D TOTAL     ACCESS:   20932860  HIT:   17706626  MISS:    3226234
L1D LOAD      ACCESS:    8190849  HIT:    6607280  MISS:    1583569
L1D RFO       ACCESS:    4762633  HIT:    4667943  MISS:      94690
L1D PREFETCH  ACCESS:    7979378  HIT:    6431403  MISS:    1547975
L1D WRITEBACK ACCESS:          0  HIT:          0  MISS:          0
L1D PREFETCH  REQUESTED:    8225546  ISSUED:    8124707  USEFUL:     126880  USELESS:    1421066
L1D AVERAGE MISS LATENCY: 22.2617 cycles
L1D

SHEET
L1D-total_access : 20932860
L1D-total_hit : 17706626
L1D-total_miss : 3226234
L1D-load_access : 8190849
L1D-load_hit : 6607280
L1D-load_miss : 1583569
L1D-rfo_access : 4762633
L1D-rfo_hit : 4667943
L1D-rfo_miss : 94690
L1D-prefetch_access : 7979378
L1D-prefetch_hit : 6431403
L1D-prefetch_miss : 1547975
L1D-writeback_access : 0
L1D-writeback_hit : 0
L1D-writeback_miss : 0
L1D-prefetch_requested : 8225546
L1D-prefetch_issued : 8124707
L1D-prefetch_useful : 126880
L1D-prefetch_useless : 1421066
L1D-Avg_miss_latency : 22.2617
L1D-Morteza_fill_l2_prefetches : 0

L1I TOTAL     ACCESS:   11780203  HIT:   10141298  MISS:    1638905
L1I LOAD      ACCESS:    9871750  HIT:    8766795  MISS:    1104955
L1I RFO       ACCESS:          0  HIT:          0  MISS:          0
L1I PREFETCH  ACCESS:    1908453  HIT:    1374503  MISS:     533950
L1I WRITEBACK ACCESS:          0  HIT:          0  MISS:          0
L1I PREFETCH  REQUESTED:    2303350  ISSUED:    2303350  USEFUL:     421577  USELESS:     112392
L1I AVERAGE MISS LATENCY: 23.5195 cycles
L1I

SHEET
L1I-total_access : 11780203
L1I-total_hit : 10141298
L1I-total_miss : 1638905
L1I-load_access : 9871750
L1I-load_hit : 8766795
L1I-load_miss : 1104955
L1I-rfo_access : 0
L1I-rfo_hit : 0
L1I-rfo_miss : 0
L1I-prefetch_access : 1908453
L1I-prefetch_hit : 1374503
L1I-prefetch_miss : 533950
L1I-writeback_access : 0
L1I-writeback_hit : 0
L1I-writeback_miss : 0
L1I-prefetch_requested : 2303350
L1I-prefetch_issued : 2303350
L1I-prefetch_useful : 421577
L1I-prefetch_useless : 112392
L1I-Avg_miss_latency : 23.5195
L1I-Morteza_fill_l2_prefetches : 0

L2C TOTAL     ACCESS:    6643848  HIT:    5576343  MISS:    1067505
L2C LOAD      ACCESS:    2407668  HIT:    1784131  MISS:     623537
L2C RFO       ACCESS:      93660  HIT:      50475  MISS:      43185
L2C PREFETCH  ACCESS:    3877113  HIT:    3477010  MISS:     400103
L2C WRITEBACK ACCESS:     265407  HIT:     264727  MISS:        680
L2C PREFETCH  REQUESTED:    6674213  ISSUED:    6673547  USEFUL:      66662  USELESS:     333396
L2C AVERAGE MISS LATENCY: 41.1872 cycles
L2C

SHEET
L2C-total_access : 6643848
L2C-total_hit : 5576343
L2C-total_miss : 1067505
L2C-load_access : 2407668
L2C-load_hit : 1784131
L2C-load_miss : 623537
L2C-rfo_access : 93660
L2C-rfo_hit : 50475
L2C-rfo_miss : 43185
L2C-prefetch_access : 3877113
L2C-prefetch_hit : 3477010
L2C-prefetch_miss : 400103
L2C-writeback_access : 265407
L2C-writeback_hit : 264727
L2C-writeback_miss : 680
L2C-prefetch_requested : 6674213
L2C-prefetch_issued : 6673547
L2C-prefetch_useful : 66662
L2C-prefetch_useless : 333396
L2C-Avg_miss_latency : 41.1872
L2C-Morteza_fill_l2_prefetches : 1478741

LLC TOTAL     ACCESS:    2833782  HIT:    2679291  MISS:     154491
LLC LOAD      ACCESS:     604946  HIT:     572773  MISS:      32173
LLC RFO       ACCESS:      43179  HIT:      34402  MISS:       8777
LLC PREFETCH  ACCESS:    2040730  HIT:    1927670  MISS:     113060
LLC WRITEBACK ACCESS:     144927  HIT:     144446  MISS:        481
LLC PREFETCH  REQUESTED:          0  ISSUED:          0  USEFUL:      19443  USELESS:      94142
LLC AVERAGE MISS LATENCY: 163.548 cycles
LLC

SHEET
LLC-total_access : 2833782
LLC-total_hit : 2679291
LLC-total_miss : 154491
LLC-load_access : 604946
LLC-load_hit : 572773
LLC-load_miss : 32173
LLC-rfo_access : 43179
LLC-rfo_hit : 34402
LLC-rfo_miss : 8777
LLC-prefetch_access : 2040730
LLC-prefetch_hit : 1927670
LLC-prefetch_miss : 113060
LLC-writeback_access : 144927
LLC-writeback_hit : 144446
LLC-writeback_miss : 481
LLC-prefetch_requested : 0
LLC-prefetch_issued : 0
LLC-prefetch_useful : 19443
LLC-prefetch_useless : 94142
LLC-Avg_miss_latency : 163.548
LLC-Morteza_fill_l2_prefetches : 1608776

Major fault: 0 Minor fault: 5593
num_of_hits: 5454341
num_of_misses: 1361525
hit_rate: 0.800242
observed_signatures: 17376
RAS addresses: 2638
branch_addresses: 23120
RAS match: 1626066	 RAS_mismatches: 77763	 accuracy: 0.95436

 morteza stats start 

SHEET
RAS_access_cntr : 15004946
current_block_access_cntr : 41457150
table_access_cntr : 6134861
last_block_access_cntr : 41457150
last_signature_access_cntr : 6815352
miss_log_access_cntr : 3720399
prefetch_queue_access_cntr : 8242972
signature_access_cntr : 10223028
miss log count : 122


morteza stats endCPU 0 L1D next line prefetcher final stats

DRAM Statistics
 CHANNEL 0
 RQ ROW_BUFFER_HIT:      25164  ROW_BUFFER_MISS:     128843
 DBUS_CONGESTED:      60015
 WQ ROW_BUFFER_HIT:       9538  ROW_BUFFER_MISS:      45545  FULL:          0

 AVG_CONGESTED_CYCLE: 5

CPU 0 Branch Prediction Accuracy: 99.5528% MPKI: 0.89798 Average ROB Occupancy at Mispredict: 76.1608

Branch types
NOT_BRANCH: 39958766 79.9175%
BRANCH_DIRECT_JUMP: 449946 0.899892%
BRANCH_INDIRECT: 140210 0.28042%
BRANCH_CONDITIONAL: 7679666 15.3593%
BRANCH_DIRECT_CALL: 701578 1.40316%
BRANCH_INDIRECT_CALL: 168971 0.337942%
BRANCH_RETURN: 900560 1.80112%
BRANCH_OTHER: 0 0%

