Initialize SIGNATURE TABLE
ST_SET: 1
ST_WAY: 256
ST_TAG_BIT: 16
ST_TAG_MASK: ffff

Initialize PATTERN TABLE
PT_SET: 512
PT_WAY: 4
SIG_DELTA_BIT: 7
C_SIG_BIT: 4
C_DELTA_BIT: 4

Initialize PREFETCH FILTER
FILTER_SET: 1024

*** ChampSim Multicore Out-of-Order Simulator ***

Warmup Instructions: 50000000
Simulation Instructions: 50000000
Number of CPUs: 1
LLC sets: 2048
LLC ways: 16
Off-chip DRAM Size: 4096 MB Channels: 1 Width: 64-bit Data Rate: 3200 MT/s

CPU 0 runs /home/mbaradaran/ChampSim/dpc3_traces/server_004.champsimtrace.xz
CPU 0 L1D next line prefetcher
Heartbeat CPU 0 instructions: 10000002 cycles: 3228580 heartbeat IPC: 3.09734 cumulative IPC: 3.09734 (Simulation time: 0 hr 1 min 22 sec) 
Heartbeat CPU 0 instructions: 20000002 cycles: 6563273 heartbeat IPC: 2.99878 cumulative IPC: 3.04726 (Simulation time: 0 hr 2 min 41 sec) 
Heartbeat CPU 0 instructions: 30000000 cycles: 11680555 heartbeat IPC: 1.95416 cumulative IPC: 2.56837 (Simulation time: 0 hr 4 min 21 sec) 
Heartbeat CPU 0 instructions: 40000003 cycles: 15427820 heartbeat IPC: 2.66861 cumulative IPC: 2.59272 (Simulation time: 0 hr 5 min 42 sec) 
Heartbeat CPU 0 instructions: 50000003 cycles: 18655266 heartbeat IPC: 3.09843 cumulative IPC: 2.68021 (Simulation time: 0 hr 7 min 4 sec) 

Warmup complete CPU 0 instructions: 50000003 cycles: 18655266 (Simulation time: 0 hr 7 min 4 sec) 

Heartbeat CPU 0 instructions: 60000002 cycles: 30337210 heartbeat IPC: 0.856022 cumulative IPC: 0.856022 (Simulation time: 0 hr 8 min 12 sec) 
Heartbeat CPU 0 instructions: 70000000 cycles: 41619354 heartbeat IPC: 0.886356 cumulative IPC: 0.870925 (Simulation time: 0 hr 9 min 25 sec) 
Heartbeat CPU 0 instructions: 80000001 cycles: 63729606 heartbeat IPC: 0.452279 cumulative IPC: 0.665567 (Simulation time: 0 hr 11 min 34 sec) 
Heartbeat CPU 0 instructions: 90000003 cycles: 79639927 heartbeat IPC: 0.628523 cumulative IPC: 0.655903 (Simulation time: 0 hr 13 min 8 sec) 
Heartbeat CPU 0 instructions: 100000003 cycles: 91492405 heartbeat IPC: 0.843705 cumulative IPC: 0.686463 (Simulation time: 0 hr 14 min 18 sec) 
Finished CPU 0 instructions: 50000000 cycles: 72837139 cumulative IPC: 0.686463 (Simulation time: 0 hr 14 min 18 sec) 

ChampSim completed all CPUs

Region of Interest Statistics

CPU 0 cumulative IPC: 0.686463 instructions: 50000000 cycles: 72837139

SHEET
IPC : 0.686463

L1D TOTAL     ACCESS:   22307650  HIT:   18235842  MISS:    4071808
L1D LOAD      ACCESS:    8916647  HIT:    6905145  MISS:    2011502
L1D RFO       ACCESS:    4674652  HIT:    4567602  MISS:     107050
L1D PREFETCH  ACCESS:    8716351  HIT:    6763095  MISS:    1953256
L1D WRITEBACK ACCESS:          0  HIT:          0  MISS:          0
L1D PREFETCH  REQUESTED:    8953269  ISSUED:    8860840  USEFUL:     113275  USELESS:    1839977
L1D AVERAGE MISS LATENCY: 22.4688 cycles
L1D

SHEET
L1D-total_access : 22307650
L1D-total_hit : 18235842
L1D-total_miss : 4071808
L1D-load_access : 8916647
L1D-load_hit : 6905145
L1D-load_miss : 2011502
L1D-rfo_access : 4674652
L1D-rfo_hit : 4567602
L1D-rfo_miss : 107050
L1D-prefetch_access : 8716351
L1D-prefetch_hit : 6763095
L1D-prefetch_miss : 1953256
L1D-writeback_access : 0
L1D-writeback_hit : 0
L1D-writeback_miss : 0
L1D-prefetch_requested : 8953269
L1D-prefetch_issued : 8860840
L1D-prefetch_useful : 113275
L1D-prefetch_useless : 1839977
L1D-Avg_miss_latency : 22.4688
L1D-Morteza_fill_l2_prefetches : 0

L1I TOTAL     ACCESS:   12468013  HIT:   11278272  MISS:    1189741
L1I LOAD      ACCESS:   10628857  HIT:    9708384  MISS:     920473
L1I RFO       ACCESS:          0  HIT:          0  MISS:          0
L1I PREFETCH  ACCESS:    1839156  HIT:    1569888  MISS:     269268
L1I WRITEBACK ACCESS:          0  HIT:          0  MISS:          0
L1I PREFETCH  REQUESTED:    2065761  ISSUED:    2065761  USEFUL:     229209  USELESS:      40064
L1I AVERAGE MISS LATENCY: 29.7077 cycles
L1I

SHEET
L1I-total_access : 12468013
L1I-total_hit : 11278272
L1I-total_miss : 1189741
L1I-load_access : 10628857
L1I-load_hit : 9708384
L1I-load_miss : 920473
L1I-rfo_access : 0
L1I-rfo_hit : 0
L1I-rfo_miss : 0
L1I-prefetch_access : 1839156
L1I-prefetch_hit : 1569888
L1I-prefetch_miss : 269268
L1I-writeback_access : 0
L1I-writeback_hit : 0
L1I-writeback_miss : 0
L1I-prefetch_requested : 2065761
L1I-prefetch_issued : 2065761
L1I-prefetch_useful : 229209
L1I-prefetch_useless : 40064
L1I-Avg_miss_latency : 29.7077
L1I-Morteza_fill_l2_prefetches : 0

L2C TOTAL     ACCESS:    6954440  HIT:    5974857  MISS:     979583
L2C LOAD      ACCESS:    2763372  HIT:    2157619  MISS:     605753
L2C RFO       ACCESS:     105860  HIT:      58262  MISS:      47598
L2C PREFETCH  ACCESS:    3840157  HIT:    3514577  MISS:     325580
L2C WRITEBACK ACCESS:     245051  HIT:     244399  MISS:        652
L2C PREFETCH  REQUESTED:    6475432  ISSUED:    6474805  USEFUL:      55234  USELESS:     270361
L2C AVERAGE MISS LATENCY: 51.784 cycles
L2C

SHEET
L2C-total_access : 6954440
L2C-total_hit : 5974857
L2C-total_miss : 979583
L2C-load_access : 2763372
L2C-load_hit : 2157619
L2C-load_miss : 605753
L2C-rfo_access : 105860
L2C-rfo_hit : 58262
L2C-rfo_miss : 47598
L2C-prefetch_access : 3840157
L2C-prefetch_hit : 3514577
L2C-prefetch_miss : 325580
L2C-writeback_access : 245051
L2C-writeback_hit : 244399
L2C-writeback_miss : 652
L2C-prefetch_requested : 6475432
L2C-prefetch_issued : 6474805
L2C-prefetch_useful : 55234
L2C-prefetch_useless : 270361
L2C-Avg_miss_latency : 51.784
L2C-Morteza_fill_l2_prefetches : 1415532

LLC TOTAL     ACCESS:    2684040  HIT:    2432090  MISS:     251950
LLC LOAD      ACCESS:     588538  HIT:     519264  MISS:      69274
LLC RFO       ACCESS:      47594  HIT:      31909  MISS:      15685
LLC PREFETCH  ACCESS:    1911508  HIT:    1745074  MISS:     166434
LLC WRITEBACK ACCESS:     136400  HIT:     135843  MISS:        557
LLC PREFETCH  REQUESTED:          0  ISSUED:          0  USEFUL:      37732  USELESS:     128378
LLC AVERAGE MISS LATENCY: 161.797 cycles
LLC

SHEET
LLC-total_access : 2684040
LLC-total_hit : 2432090
LLC-total_miss : 251950
LLC-load_access : 588538
LLC-load_hit : 519264
LLC-load_miss : 69274
LLC-rfo_access : 47594
LLC-rfo_hit : 31909
LLC-rfo_miss : 15685
LLC-prefetch_access : 1911508
LLC-prefetch_hit : 1745074
LLC-prefetch_miss : 166434
LLC-writeback_access : 136400
LLC-writeback_hit : 135843
LLC-writeback_miss : 557
LLC-prefetch_requested : 0
LLC-prefetch_issued : 0
LLC-prefetch_useful : 37732
LLC-prefetch_useless : 128378
LLC-Avg_miss_latency : 161.797
LLC-Morteza_fill_l2_prefetches : 1501225

Major fault: 0 Minor fault: 7592
num_of_hits: 6197736
num_of_misses: 1522740
hit_rate: 0.802766
observed_signatures: 60598
RAS addresses: 8557
branch_addresses: 49459
RAS match: 1862422	 RAS_mismatches: 67547	 accuracy: 0.965001

 morteza stats start 

SHEET
RAS_access_cntr : 17903873
current_block_access_cntr : 46050940
table_access_cntr : 6958941
last_block_access_cntr : 46050940
last_signature_access_cntr : 7719886
miss_log_access_cntr : 3087657
prefetch_queue_access_cntr : 7995674
signature_access_cntr : 11579829
miss log count : 141


morteza stats endCPU 0 L1D next line prefetcher final stats

DRAM Statistics
 CHANNEL 0
 RQ ROW_BUFFER_HIT:      53961  ROW_BUFFER_MISS:     197417
 DBUS_CONGESTED:      95088
 WQ ROW_BUFFER_HIT:      11448  ROW_BUFFER_MISS:      44635  FULL:          0

 AVG_CONGESTED_CYCLE: 5

CPU 0 Branch Prediction Accuracy: 98.1603% MPKI: 3.89124 Average ROB Occupancy at Mispredict: 49.3004

Branch types
NOT_BRANCH: 39423755 78.8475%
BRANCH_DIRECT_JUMP: 551642 1.10328%
BRANCH_INDIRECT: 139368 0.278736%
BRANCH_CONDITIONAL: 7920858 15.8417%
BRANCH_DIRECT_CALL: 776072 1.55214%
BRANCH_INDIRECT_CALL: 194644 0.389288%
BRANCH_RETURN: 993311 1.98662%
BRANCH_OTHER: 0 0%

