Initialize SIGNATURE TABLE
ST_SET: 1
ST_WAY: 256
ST_TAG_BIT: 16
ST_TAG_MASK: ffff

Initialize PATTERN TABLE
PT_SET: 512
PT_WAY: 4
SIG_DELTA_BIT: 7
C_SIG_BIT: 4
C_DELTA_BIT: 4

Initialize PREFETCH FILTER
FILTER_SET: 1024

*** ChampSim Multicore Out-of-Order Simulator ***

Warmup Instructions: 50000000
Simulation Instructions: 50000000
Number of CPUs: 1
LLC sets: 2048
LLC ways: 16
Off-chip DRAM Size: 4096 MB Channels: 1 Width: 64-bit Data Rate: 3200 MT/s

CPU 0 runs /home/mbaradaran/ChampSim/dpc3_traces/server_012.champsimtrace.xz
CPU 0 L1D next line prefetcher
Heartbeat CPU 0 instructions: 10000002 cycles: 3194858 heartbeat IPC: 3.13003 cumulative IPC: 3.13003 (Simulation time: 0 hr 1 min 18 sec) 
Heartbeat CPU 0 instructions: 20000002 cycles: 6392624 heartbeat IPC: 3.12718 cumulative IPC: 3.12861 (Simulation time: 0 hr 2 min 37 sec) 
Heartbeat CPU 0 instructions: 30000001 cycles: 9591083 heartbeat IPC: 3.12651 cumulative IPC: 3.12791 (Simulation time: 0 hr 3 min 47 sec) 
Heartbeat CPU 0 instructions: 40000000 cycles: 12795811 heartbeat IPC: 3.12039 cumulative IPC: 3.12602 (Simulation time: 0 hr 4 min 56 sec) 
Heartbeat CPU 0 instructions: 50000003 cycles: 15992942 heartbeat IPC: 3.12781 cumulative IPC: 3.12638 (Simulation time: 0 hr 6 min 11 sec) 

Warmup complete CPU 0 instructions: 50000003 cycles: 15992942 (Simulation time: 0 hr 6 min 11 sec) 

Heartbeat CPU 0 instructions: 60000002 cycles: 25927958 heartbeat IPC: 1.00654 cumulative IPC: 1.00654 (Simulation time: 0 hr 7 min 15 sec) 
Heartbeat CPU 0 instructions: 70000000 cycles: 35932101 heartbeat IPC: 0.999586 cumulative IPC: 1.00305 (Simulation time: 0 hr 8 min 16 sec) 
Heartbeat CPU 0 instructions: 80000003 cycles: 46177341 heartbeat IPC: 0.976063 cumulative IPC: 0.993891 (Simulation time: 0 hr 9 min 15 sec) 
Heartbeat CPU 0 instructions: 90000001 cycles: 56497906 heartbeat IPC: 0.968939 cumulative IPC: 0.987533 (Simulation time: 0 hr 10 min 15 sec) 
Heartbeat CPU 0 instructions: 100000002 cycles: 66696310 heartbeat IPC: 0.980546 cumulative IPC: 0.986128 (Simulation time: 0 hr 11 min 18 sec) 
Finished CPU 0 instructions: 50000001 cycles: 50703369 cumulative IPC: 0.986128 (Simulation time: 0 hr 11 min 18 sec) 

ChampSim completed all CPUs

Region of Interest Statistics

CPU 0 cumulative IPC: 0.986128 instructions: 50000001 cycles: 50703369

SHEET
IPC : 0.986128

L1D TOTAL     ACCESS:   18337080  HIT:   17293237  MISS:    1043843
L1D LOAD      ACCESS:    6780204  HIT:    6302921  MISS:     477283
L1D RFO       ACCESS:    5008830  HIT:    4926659  MISS:      82171
L1D PREFETCH  ACCESS:    6548046  HIT:    6063657  MISS:     484389
L1D WRITEBACK ACCESS:          0  HIT:          0  MISS:          0
L1D PREFETCH  REQUESTED:    6816723  ISSUED:    6713370  USEFUL:     143293  USELESS:     341117
L1D AVERAGE MISS LATENCY: 39.1571 cycles
L1D

SHEET
L1D-total_access : 18337080
L1D-total_hit : 17293237
L1D-total_miss : 1043843
L1D-load_access : 6780204
L1D-load_hit : 6302921
L1D-load_miss : 477283
L1D-rfo_access : 5008830
L1D-rfo_hit : 4926659
L1D-rfo_miss : 82171
L1D-prefetch_access : 6548046
L1D-prefetch_hit : 6063657
L1D-prefetch_miss : 484389
L1D-writeback_access : 0
L1D-writeback_hit : 0
L1D-writeback_miss : 0
L1D-prefetch_requested : 6816723
L1D-prefetch_issued : 6713370
L1D-prefetch_useful : 143293
L1D-prefetch_useless : 341117
L1D-Avg_miss_latency : 39.1571
L1D-Morteza_fill_l2_prefetches : 0

L1I TOTAL     ACCESS:   10633318  HIT:    8993898  MISS:    1639420
L1I LOAD      ACCESS:    8609717  HIT:    7443805  MISS:    1165912
L1I RFO       ACCESS:          0  HIT:          0  MISS:          0
L1I PREFETCH  ACCESS:    2023601  HIT:    1550093  MISS:     473508
L1I WRITEBACK ACCESS:          0  HIT:          0  MISS:          0
L1I PREFETCH  REQUESTED:    2416095  ISSUED:    2416095  USEFUL:     388819  USELESS:      84698
L1I AVERAGE MISS LATENCY: 25.0024 cycles
L1I

SHEET
L1I-total_access : 10633318
L1I-total_hit : 8993898
L1I-total_miss : 1639420
L1I-load_access : 8609717
L1I-load_hit : 7443805
L1I-load_miss : 1165912
L1I-rfo_access : 0
L1I-rfo_hit : 0
L1I-rfo_miss : 0
L1I-prefetch_access : 2023601
L1I-prefetch_hit : 1550093
L1I-prefetch_miss : 473508
L1I-writeback_access : 0
L1I-writeback_hit : 0
L1I-writeback_miss : 0
L1I-prefetch_requested : 2416095
L1I-prefetch_issued : 2416095
L1I-prefetch_useful : 388819
L1I-prefetch_useless : 84698
L1I-Avg_miss_latency : 25.0024
L1I-Morteza_fill_l2_prefetches : 0

L2C TOTAL     ACCESS:    3902727  HIT:    2703972  MISS:    1198755
L2C LOAD      ACCESS:    1346516  HIT:     648208  MISS:     698308
L2C RFO       ACCESS:      81003  HIT:      32908  MISS:      48095
L2C PREFETCH  ACCESS:    2199654  HIT:    1748194  MISS:     451460
L2C WRITEBACK ACCESS:     275554  HIT:     274662  MISS:        892
L2C PREFETCH  REQUESTED:    3595484  ISSUED:    3594679  USEFUL:      74048  USELESS:     377104
L2C AVERAGE MISS LATENCY: 41.5588 cycles
L2C

SHEET
L2C-total_access : 3902727
L2C-total_hit : 2703972
L2C-total_miss : 1198755
L2C-load_access : 1346516
L2C-load_hit : 648208
L2C-load_miss : 698308
L2C-rfo_access : 81003
L2C-rfo_hit : 32908
L2C-rfo_miss : 48095
L2C-prefetch_access : 2199654
L2C-prefetch_hit : 1748194
L2C-prefetch_miss : 451460
L2C-writeback_access : 275554
L2C-writeback_hit : 274662
L2C-writeback_miss : 892
L2C-prefetch_requested : 3595484
L2C-prefetch_issued : 3594679
L2C-prefetch_useful : 74048
L2C-prefetch_useless : 377104
L2C-Avg_miss_latency : 41.5588
L2C-Morteza_fill_l2_prefetches : 902252

LLC TOTAL     ACCESS:    2906800  HIT:    2725496  MISS:     181304
LLC LOAD      ACCESS:     678128  HIT:     640135  MISS:      37993
LLC RFO       ACCESS:      48093  HIT:      37380  MISS:      10713
LLC PREFETCH  ACCESS:    2019955  HIT:    1887994  MISS:     131961
LLC WRITEBACK ACCESS:     160624  HIT:     159987  MISS:        637
LLC PREFETCH  REQUESTED:          0  ISSUED:          0  USEFUL:      23478  USELESS:     108490
LLC AVERAGE MISS LATENCY: 162.018 cycles
LLC

SHEET
LLC-total_access : 2906800
LLC-total_hit : 2725496
LLC-total_miss : 181304
LLC-load_access : 678128
LLC-load_hit : 640135
LLC-load_miss : 37993
LLC-rfo_access : 48093
LLC-rfo_hit : 37380
LLC-rfo_miss : 10713
LLC-prefetch_access : 2019955
LLC-prefetch_hit : 1887994
LLC-prefetch_miss : 131961
LLC-writeback_access : 160624
LLC-writeback_hit : 159987
LLC-writeback_miss : 637
LLC-prefetch_requested : 0
LLC-prefetch_issued : 0
LLC-prefetch_useful : 23478
LLC-prefetch_useless : 108490
LLC-Avg_miss_latency : 162.018
LLC-Morteza_fill_l2_prefetches : 1526794

Major fault: 0 Minor fault: 5596
num_of_hits: 5342772
num_of_misses: 1407182
hit_rate: 0.791527
observed_signatures: 19164
RAS addresses: 2537
branch_addresses: 22744
RAS match: 1605103	 RAS_mismatches: 82239	 accuracy: 0.951261

 morteza stats start 

SHEET
RAS_access_cntr : 14723774
current_block_access_cntr : 38923012
table_access_cntr : 6046106
last_block_access_cntr : 38923012
last_signature_access_cntr : 6749376
miss_log_access_cntr : 3800990
prefetch_queue_access_cntr : 8264808
signature_access_cntr : 10124064
miss log count : 122


morteza stats endCPU 0 L1D next line prefetcher final stats

DRAM Statistics
 CHANNEL 0
 RQ ROW_BUFFER_HIT:      30439  ROW_BUFFER_MISS:     150213
 DBUS_CONGESTED:      71672
 WQ ROW_BUFFER_HIT:      10685  ROW_BUFFER_MISS:      51571  FULL:          0

 AVG_CONGESTED_CYCLE: 5

CPU 0 Branch Prediction Accuracy: 99.4607% MPKI: 1.00288 Average ROB Occupancy at Mispredict: 75.0295

Branch types
NOT_BRANCH: 40700937 81.4019%
BRANCH_DIRECT_JUMP: 469808 0.939616%
BRANCH_INDIRECT: 153732 0.307464%
BRANCH_CONDITIONAL: 6944055 13.8881%
BRANCH_DIRECT_CALL: 679876 1.35975%
BRANCH_INDIRECT_CALL: 168745 0.33749%
BRANCH_RETURN: 882491 1.76498%
BRANCH_OTHER: 0 0%

