Initialize SIGNATURE TABLE
ST_SET: 1
ST_WAY: 256
ST_TAG_BIT: 16
ST_TAG_MASK: ffff

Initialize PATTERN TABLE
PT_SET: 512
PT_WAY: 4
SIG_DELTA_BIT: 7
C_SIG_BIT: 4
C_DELTA_BIT: 4

Initialize PREFETCH FILTER
FILTER_SET: 1024

*** ChampSim Multicore Out-of-Order Simulator ***

Warmup Instructions: 50000000
Simulation Instructions: 50000000
Number of CPUs: 1
LLC sets: 2048
LLC ways: 16
Off-chip DRAM Size: 4096 MB Channels: 1 Width: 64-bit Data Rate: 3200 MT/s

CPU 0 runs /home/mbaradaran/ChampSim/dpc3_traces/server_029.champsimtrace.xz
CPU 0 L1D next line prefetcher
Heartbeat CPU 0 instructions: 10000001 cycles: 3487801 heartbeat IPC: 2.86714 cumulative IPC: 2.86714 (Simulation time: 0 hr 1 min 29 sec) 
Heartbeat CPU 0 instructions: 20000002 cycles: 6975278 heartbeat IPC: 2.8674 cumulative IPC: 2.86727 (Simulation time: 0 hr 2 min 50 sec) 
Heartbeat CPU 0 instructions: 30000003 cycles: 10463904 heartbeat IPC: 2.86646 cumulative IPC: 2.867 (Simulation time: 0 hr 4 min 13 sec) 
Heartbeat CPU 0 instructions: 40000000 cycles: 13959578 heartbeat IPC: 2.86068 cumulative IPC: 2.86542 (Simulation time: 0 hr 5 min 37 sec) 
Heartbeat CPU 0 instructions: 50000000 cycles: 17454228 heartbeat IPC: 2.86152 cumulative IPC: 2.86464 (Simulation time: 0 hr 7 min 4 sec) 

Warmup complete CPU 0 instructions: 50000004 cycles: 17454229 (Simulation time: 0 hr 7 min 4 sec) 

Heartbeat CPU 0 instructions: 60000000 cycles: 26631972 heartbeat IPC: 1.08959 cumulative IPC: 1.08959 (Simulation time: 0 hr 8 min 21 sec) 
Heartbeat CPU 0 instructions: 70000000 cycles: 36072737 heartbeat IPC: 1.05924 cumulative IPC: 1.0742 (Simulation time: 0 hr 9 min 34 sec) 
Heartbeat CPU 0 instructions: 80000002 cycles: 45304191 heartbeat IPC: 1.08325 cumulative IPC: 1.0772 (Simulation time: 0 hr 10 min 46 sec) 
*** Reached end of trace for Core: 0 Repeating trace: /home/mbaradaran/ChampSim/dpc3_traces/server_029.champsimtrace.xz
Heartbeat CPU 0 instructions: 90000000 cycles: 54491141 heartbeat IPC: 1.0885 cumulative IPC: 1.08 (Simulation time: 0 hr 12 min 1 sec) 
Heartbeat CPU 0 instructions: 100000003 cycles: 63702935 heartbeat IPC: 1.08557 cumulative IPC: 1.08111 (Simulation time: 0 hr 13 min 16 sec) 
Finished CPU 0 instructions: 50000003 cycles: 46248707 cumulative IPC: 1.08111 (Simulation time: 0 hr 13 min 16 sec) 

ChampSim completed all CPUs

Region of Interest Statistics

CPU 0 cumulative IPC: 1.08111 instructions: 50000003 cycles: 46248707

SHEET
IPC : 1.08111

L1D TOTAL     ACCESS:   20559891  HIT:   18461640  MISS:    2098251
L1D LOAD      ACCESS:    7444759  HIT:    6386791  MISS:    1057968
L1D RFO       ACCESS:    6166311  HIT:    5880403  MISS:     285908
L1D PREFETCH  ACCESS:    6948821  HIT:    6194446  MISS:     754375
L1D WRITEBACK ACCESS:          0  HIT:          0  MISS:          0
L1D PREFETCH  REQUESTED:    7511039  ISSUED:    7427516  USEFUL:     182659  USELESS:     571706
L1D AVERAGE MISS LATENCY: 20.6695 cycles
L1D

SHEET
L1D-total_access : 20559891
L1D-total_hit : 18461640
L1D-total_miss : 2098251
L1D-load_access : 7444759
L1D-load_hit : 6386791
L1D-load_miss : 1057968
L1D-rfo_access : 6166311
L1D-rfo_hit : 5880403
L1D-rfo_miss : 285908
L1D-prefetch_access : 6948821
L1D-prefetch_hit : 6194446
L1D-prefetch_miss : 754375
L1D-writeback_access : 0
L1D-writeback_hit : 0
L1D-writeback_miss : 0
L1D-prefetch_requested : 7511039
L1D-prefetch_issued : 7427516
L1D-prefetch_useful : 182659
L1D-prefetch_useless : 571706
L1D-Avg_miss_latency : 20.6695
L1D-Morteza_fill_l2_prefetches : 0

L1I TOTAL     ACCESS:   11113879  HIT:    8027174  MISS:    3086705
L1I LOAD      ACCESS:    9476896  HIT:    7564625  MISS:    1912271
L1I RFO       ACCESS:          0  HIT:          0  MISS:          0
L1I PREFETCH  ACCESS:    1636983  HIT:     462549  MISS:    1174434
L1I WRITEBACK ACCESS:          0  HIT:          0  MISS:          0
L1I PREFETCH  REQUESTED:    2779725  ISSUED:    2779725  USEFUL:    1089329  USELESS:      85109
L1I AVERAGE MISS LATENCY: 12.2707 cycles
L1I

SHEET
L1I-total_access : 11113879
L1I-total_hit : 8027174
L1I-total_miss : 3086705
L1I-load_access : 9476896
L1I-load_hit : 7564625
L1I-load_miss : 1912271
L1I-rfo_access : 0
L1I-rfo_hit : 0
L1I-rfo_miss : 0
L1I-prefetch_access : 1636983
L1I-prefetch_hit : 462549
L1I-prefetch_miss : 1174434
L1I-writeback_access : 0
L1I-writeback_hit : 0
L1I-writeback_miss : 0
L1I-prefetch_requested : 2779725
L1I-prefetch_issued : 2779725
L1I-prefetch_useful : 1089329
L1I-prefetch_useless : 85109
L1I-Avg_miss_latency : 12.2707
L1I-Morteza_fill_l2_prefetches : 0

L2C TOTAL     ACCESS:    7824259  HIT:    7161448  MISS:     662811
L2C LOAD      ACCESS:    1954240  HIT:    1703171  MISS:     251069
L2C RFO       ACCESS:     283340  HIT:     235552  MISS:      47788
L2C PREFETCH  ACCESS:    4976157  HIT:    4613444  MISS:     362713
L2C WRITEBACK ACCESS:     610522  HIT:     609281  MISS:       1241
L2C PREFETCH  REQUESTED:    5619989  ISSUED:    5618222  USEFUL:      23072  USELESS:     339469
L2C AVERAGE MISS LATENCY: 41.4275 cycles
L2C

SHEET
L2C-total_access : 7824259
L2C-total_hit : 7161448
L2C-total_miss : 662811
L2C-load_access : 1954240
L2C-load_hit : 1703171
L2C-load_miss : 251069
L2C-rfo_access : 283340
L2C-rfo_hit : 235552
L2C-rfo_miss : 47788
L2C-prefetch_access : 4976157
L2C-prefetch_hit : 4613444
L2C-prefetch_miss : 362713
L2C-writeback_access : 610522
L2C-writeback_hit : 609281
L2C-writeback_miss : 1241
L2C-prefetch_requested : 5619989
L2C-prefetch_issued : 5618222
L2C-prefetch_useful : 23072
L2C-prefetch_useless : 339469
L2C-Avg_miss_latency : 41.4275
L2C-Morteza_fill_l2_prefetches : 2129152

LLC TOTAL     ACCESS:    2310952  HIT:    2242264  MISS:      68688
LLC LOAD      ACCESS:     250689  HIT:     233103  MISS:      17586
LLC RFO       ACCESS:      47784  HIT:      44189  MISS:       3595
LLC PREFETCH  ACCESS:    1913281  HIT:    1866320  MISS:      46961
LLC WRITEBACK ACCESS:      99198  HIT:      98652  MISS:        546
LLC PREFETCH  REQUESTED:          0  ISSUED:          0  USEFUL:       2686  USELESS:      45252
LLC AVERAGE MISS LATENCY: 155.486 cycles
LLC

SHEET
LLC-total_access : 2310952
LLC-total_hit : 2242264
LLC-total_miss : 68688
LLC-load_access : 250689
LLC-load_hit : 233103
LLC-load_miss : 17586
LLC-rfo_access : 47784
LLC-rfo_hit : 44189
LLC-rfo_miss : 3595
LLC-prefetch_access : 1913281
LLC-prefetch_hit : 1866320
LLC-prefetch_miss : 46961
LLC-writeback_access : 99198
LLC-writeback_hit : 98652
LLC-writeback_miss : 546
LLC-prefetch_requested : 0
LLC-prefetch_issued : 0
LLC-prefetch_useful : 2686
LLC-prefetch_useless : 45252
LLC-Avg_miss_latency : 155.486
LLC-Morteza_fill_l2_prefetches : 1545491

Major fault: 0 Minor fault: 5918
num_of_hits: 6651178
num_of_misses: 2810330
hit_rate: 0.702972
observed_signatures: 4927
RAS addresses: 1685
branch_addresses: 8898
RAS match: 2337569	 RAS_mismatches: 10119	 accuracy: 0.99569

 morteza stats start 

SHEET
RAS_access_cntr : 22738899
current_block_access_cntr : 42758916
table_access_cntr : 8056343
last_block_access_cntr : 42758916
last_signature_access_cntr : 9390766
miss_log_access_cntr : 6303543
prefetch_queue_access_cntr : 10140066
signature_access_cntr : 14086149
miss log count : 26


morteza stats endCPU 0 L1D next line prefetcher final stats

DRAM Statistics
 CHANNEL 0
 RQ ROW_BUFFER_HIT:      19865  ROW_BUFFER_MISS:      48266
 DBUS_CONGESTED:      26739
 WQ ROW_BUFFER_HIT:        577  ROW_BUFFER_MISS:       3934  FULL:          0

 AVG_CONGESTED_CYCLE: 4

CPU 0 Branch Prediction Accuracy: 99.7245% MPKI: 0.51862 Average ROB Occupancy at Mispredict: 111.078

Branch types
NOT_BRANCH: 40586579 81.1732%
BRANCH_DIRECT_JUMP: 525208 1.05042%
BRANCH_INDIRECT: 166359 0.332718%
BRANCH_CONDITIONAL: 6373090 12.7462%
BRANCH_DIRECT_CALL: 989263 1.97853%
BRANCH_INDIRECT_CALL: 184984 0.369968%
BRANCH_RETURN: 1174250 2.3485%
BRANCH_OTHER: 0 0%

