Initialize SIGNATURE TABLE
ST_SET: 1
ST_WAY: 256
ST_TAG_BIT: 16
ST_TAG_MASK: ffff

Initialize PATTERN TABLE
PT_SET: 512
PT_WAY: 4
SIG_DELTA_BIT: 7
C_SIG_BIT: 4
C_DELTA_BIT: 4

Initialize PREFETCH FILTER
FILTER_SET: 1024

*** ChampSim Multicore Out-of-Order Simulator ***

Warmup Instructions: 50000000
Simulation Instructions: 50000000
Number of CPUs: 1
LLC sets: 2048
LLC ways: 16
Off-chip DRAM Size: 4096 MB Channels: 1 Width: 64-bit Data Rate: 3200 MT/s

CPU 0 runs /home/mbaradaran/ChampSim/dpc3_traces/server_019.champsimtrace.xz
CPU 0 L1D next line prefetcher
Heartbeat CPU 0 instructions: 10000002 cycles: 3621858 heartbeat IPC: 2.76101 cumulative IPC: 2.76101 (Simulation time: 0 hr 1 min 28 sec) 
Heartbeat CPU 0 instructions: 20000003 cycles: 7245143 heartbeat IPC: 2.75993 cumulative IPC: 2.76047 (Simulation time: 0 hr 2 min 52 sec) 
Heartbeat CPU 0 instructions: 30000002 cycles: 10867240 heartbeat IPC: 2.76083 cumulative IPC: 2.76059 (Simulation time: 0 hr 4 min 17 sec) 
Heartbeat CPU 0 instructions: 40000002 cycles: 14501016 heartbeat IPC: 2.75196 cumulative IPC: 2.75843 (Simulation time: 0 hr 5 min 44 sec) 
Heartbeat CPU 0 instructions: 50000001 cycles: 18123227 heartbeat IPC: 2.76074 cumulative IPC: 2.75889 (Simulation time: 0 hr 7 min 13 sec) 

Warmup complete CPU 0 instructions: 50000001 cycles: 18123227 (Simulation time: 0 hr 7 min 13 sec) 

Heartbeat CPU 0 instructions: 60000000 cycles: 38174497 heartbeat IPC: 0.498721 cumulative IPC: 0.498721 (Simulation time: 0 hr 9 min 13 sec) 
Heartbeat CPU 0 instructions: 70000002 cycles: 61966466 heartbeat IPC: 0.42031 cumulative IPC: 0.456171 (Simulation time: 0 hr 11 min 3 sec) 
Heartbeat CPU 0 instructions: 80000002 cycles: 82683895 heartbeat IPC: 0.482685 cumulative IPC: 0.464679 (Simulation time: 0 hr 12 min 57 sec) 
Heartbeat CPU 0 instructions: 90000002 cycles: 100389424 heartbeat IPC: 0.564795 cumulative IPC: 0.486226 (Simulation time: 0 hr 14 min 57 sec) 
Heartbeat CPU 0 instructions: 100000002 cycles: 118093844 heartbeat IPC: 0.564831 cumulative IPC: 0.500147 (Simulation time: 0 hr 17 min 4 sec) 
Finished CPU 0 instructions: 50000001 cycles: 99970617 cumulative IPC: 0.500147 (Simulation time: 0 hr 17 min 4 sec) 

ChampSim completed all CPUs

Region of Interest Statistics

CPU 0 cumulative IPC: 0.500147 instructions: 50000001 cycles: 99970617

SHEET
IPC : 0.500147

L1D TOTAL     ACCESS:   18495705  HIT:   16272059  MISS:    2223646
L1D LOAD      ACCESS:    7066940  HIT:    6315088  MISS:     751852
L1D RFO       ACCESS:    5517294  HIT:    4615240  MISS:     902054
L1D PREFETCH  ACCESS:    5911471  HIT:    5341731  MISS:     569740
L1D WRITEBACK ACCESS:          0  HIT:          0  MISS:          0
L1D PREFETCH  REQUESTED:    7104847  ISSUED:    6921193  USEFUL:     200510  USELESS:     369138
L1D AVERAGE MISS LATENCY: 185.202 cycles
L1D

SHEET
L1D-total_access : 18495705
L1D-total_hit : 16272059
L1D-total_miss : 2223646
L1D-load_access : 7066940
L1D-load_hit : 6315088
L1D-load_miss : 751852
L1D-rfo_access : 5517294
L1D-rfo_hit : 4615240
L1D-rfo_miss : 902054
L1D-prefetch_access : 5911471
L1D-prefetch_hit : 5341731
L1D-prefetch_miss : 569740
L1D-writeback_access : 0
L1D-writeback_hit : 0
L1D-writeback_miss : 0
L1D-prefetch_requested : 7104847
L1D-prefetch_issued : 6921193
L1D-prefetch_useful : 200510
L1D-prefetch_useless : 369138
L1D-Avg_miss_latency : 185.202
L1D-Morteza_fill_l2_prefetches : 0

L1I TOTAL     ACCESS:   12975467  HIT:   10645611  MISS:    2329856
L1I LOAD      ACCESS:    9731205  HIT:    8918721  MISS:     812484
L1I RFO       ACCESS:          0  HIT:          0  MISS:          0
L1I PREFETCH  ACCESS:    3244262  HIT:    1726890  MISS:    1517372
L1I WRITEBACK ACCESS:          0  HIT:          0  MISS:          0
L1I PREFETCH  REQUESTED:    4337711  ISSUED:    4337711  USEFUL:    1343028  USELESS:     174350
L1I AVERAGE MISS LATENCY: 12.2461 cycles
L1I

SHEET
L1I-total_access : 12975467
L1I-total_hit : 10645611
L1I-total_miss : 2329856
L1I-load_access : 9731205
L1I-load_hit : 8918721
L1I-load_miss : 812484
L1I-rfo_access : 0
L1I-rfo_hit : 0
L1I-rfo_miss : 0
L1I-prefetch_access : 3244262
L1I-prefetch_hit : 1726890
L1I-prefetch_miss : 1517372
L1I-writeback_access : 0
L1I-writeback_hit : 0
L1I-writeback_miss : 0
L1I-prefetch_requested : 4337711
L1I-prefetch_issued : 4337711
L1I-prefetch_useful : 1343028
L1I-prefetch_useless : 174350
L1I-Avg_miss_latency : 12.2461
L1I-Morteza_fill_l2_prefetches : 0

L2C TOTAL     ACCESS:    6900235  HIT:    5010835  MISS:    1889400
L2C LOAD      ACCESS:     696662  HIT:     358716  MISS:     337946
L2C RFO       ACCESS:     901516  HIT:      18197  MISS:     883319
L2C PREFETCH  ACCESS:    4127488  HIT:    3461721  MISS:     665767
L2C WRITEBACK ACCESS:    1174569  HIT:    1172201  MISS:       2368
L2C PREFETCH  REQUESTED:    4040287  ISSUED:    4038361  USEFUL:      23591  USELESS:     640785
L2C AVERAGE MISS LATENCY: 220.24 cycles
L2C

SHEET
L2C-total_access : 6900235
L2C-total_hit : 5010835
L2C-total_miss : 1889400
L2C-load_access : 696662
L2C-load_hit : 358716
L2C-load_miss : 337946
L2C-rfo_access : 901516
L2C-rfo_hit : 18197
L2C-rfo_miss : 883319
L2C-prefetch_access : 4127488
L2C-prefetch_hit : 3461721
L2C-prefetch_miss : 665767
L2C-writeback_access : 1174569
L2C-writeback_hit : 1172201
L2C-writeback_miss : 2368
L2C-prefetch_requested : 4040287
L2C-prefetch_issued : 4038361
L2C-prefetch_useful : 23591
L2C-prefetch_useless : 640785
L2C-Avg_miss_latency : 220.24
L2C-Morteza_fill_l2_prefetches : 1206138

LLC TOTAL     ACCESS:    4173069  HIT:    2557890  MISS:    1615179
LLC LOAD      ACCESS:     337822  HIT:     171898  MISS:     165924
LLC RFO       ACCESS:     883319  HIT:     114784  MISS:     768535
LLC PREFETCH  ACCESS:    1841320  HIT:    1162789  MISS:     678531
LLC WRITEBACK ACCESS:    1110608  HIT:    1108419  MISS:       2189
LLC PREFETCH  REQUESTED:          0  ISSUED:          0  USEFUL:      54163  USELESS:     623347
LLC AVERAGE MISS LATENCY: 272.353 cycles
LLC

SHEET
LLC-total_access : 4173069
LLC-total_hit : 2557890
LLC-total_miss : 1615179
LLC-load_access : 337822
LLC-load_hit : 171898
LLC-load_miss : 165924
LLC-rfo_access : 883319
LLC-rfo_hit : 114784
LLC-rfo_miss : 768535
LLC-prefetch_access : 1841320
LLC-prefetch_hit : 1162789
LLC-prefetch_miss : 678531
LLC-writeback_access : 1110608
LLC-writeback_hit : 1108419
LLC-writeback_miss : 2189
LLC-prefetch_requested : 0
LLC-prefetch_issued : 0
LLC-prefetch_useful : 54163
LLC-prefetch_useless : 623347
LLC-Avg_miss_latency : 272.353
LLC-Morteza_fill_l2_prefetches : 856535

Major fault: 0 Minor fault: 25691
num_of_hits: 7357126
num_of_misses: 11936
hit_rate: 0.99838
observed_signatures: 3715
RAS addresses: 1172
branch_addresses: 6429
RAS match: 1787237	 RAS_mismatches: 685	 accuracy: 0.999617

 morteza stats start 

SHEET
RAS_access_cntr : 17761997
current_block_access_cntr : 42473160
table_access_cntr : 7363094
last_block_access_cntr : 42473160
last_signature_access_cntr : 7151694
miss_log_access_cntr : 2163314
prefetch_queue_access_cntr : 12235847
signature_access_cntr : 10727541
miss log count : 26


morteza stats endCPU 0 L1D next line prefetcher final stats

DRAM Statistics
 CHANNEL 0
 RQ ROW_BUFFER_HIT:     402162  ROW_BUFFER_MISS:    1210560
 DBUS_CONGESTED:    1585807
 WQ ROW_BUFFER_HIT:     263717  ROW_BUFFER_MISS:     673402  FULL:          0

 AVG_CONGESTED_CYCLE: 6

CPU 0 Branch Prediction Accuracy: 99.2186% MPKI: 1.32192 Average ROB Occupancy at Mispredict: 176.243

Branch types
NOT_BRANCH: 41540785 83.0816%
BRANCH_DIRECT_JUMP: 462384 0.924768%
BRANCH_INDIRECT: 45460 0.09092%
BRANCH_CONDITIONAL: 6209281 12.4186%
BRANCH_DIRECT_CALL: 666241 1.33248%
BRANCH_INDIRECT_CALL: 204728 0.409456%
BRANCH_RETURN: 870978 1.74196%
BRANCH_OTHER: 0 0%

