Initialize SIGNATURE TABLE
ST_SET: 1
ST_WAY: 256
ST_TAG_BIT: 16
ST_TAG_MASK: ffff

Initialize PATTERN TABLE
PT_SET: 512
PT_WAY: 4
SIG_DELTA_BIT: 7
C_SIG_BIT: 4
C_DELTA_BIT: 4

Initialize PREFETCH FILTER
FILTER_SET: 1024

*** ChampSim Multicore Out-of-Order Simulator ***

Warmup Instructions: 50000000
Simulation Instructions: 50000000
Number of CPUs: 1
LLC sets: 2048
LLC ways: 16
Off-chip DRAM Size: 4096 MB Channels: 1 Width: 64-bit Data Rate: 3200 MT/s

CPU 0 runs /home/mbaradaran/ChampSim/dpc3_traces/server_033.champsimtrace.xz
CPU 0 L1D next line prefetcher
Heartbeat CPU 0 instructions: 10000001 cycles: 3341632 heartbeat IPC: 2.99255 cumulative IPC: 2.99255 (Simulation time: 0 hr 1 min 27 sec) 
Heartbeat CPU 0 instructions: 20000002 cycles: 6681599 heartbeat IPC: 2.99404 cumulative IPC: 2.9933 (Simulation time: 0 hr 2 min 51 sec) 
Heartbeat CPU 0 instructions: 30000001 cycles: 10011500 heartbeat IPC: 3.00309 cumulative IPC: 2.99655 (Simulation time: 0 hr 4 min 19 sec) 
Heartbeat CPU 0 instructions: 40000000 cycles: 13350311 heartbeat IPC: 2.99508 cumulative IPC: 2.99618 (Simulation time: 0 hr 5 min 41 sec) 
Heartbeat CPU 0 instructions: 50000000 cycles: 16688819 heartbeat IPC: 2.99535 cumulative IPC: 2.99602 (Simulation time: 0 hr 7 min 4 sec) 

Warmup complete CPU 0 instructions: 50000004 cycles: 16688820 (Simulation time: 0 hr 7 min 4 sec) 

Heartbeat CPU 0 instructions: 60000000 cycles: 23746537 heartbeat IPC: 1.41689 cumulative IPC: 1.41689 (Simulation time: 0 hr 8 min 26 sec) 
Heartbeat CPU 0 instructions: 70000000 cycles: 30748810 heartbeat IPC: 1.42811 cumulative IPC: 1.42248 (Simulation time: 0 hr 9 min 45 sec) 
Heartbeat CPU 0 instructions: 80000000 cycles: 38638448 heartbeat IPC: 1.26749 cumulative IPC: 1.36677 (Simulation time: 0 hr 11 min 2 sec) 
Heartbeat CPU 0 instructions: 90000003 cycles: 45825659 heartbeat IPC: 1.39136 cumulative IPC: 1.37283 (Simulation time: 0 hr 12 min 19 sec) 
Heartbeat CPU 0 instructions: 100000000 cycles: 52991145 heartbeat IPC: 1.39558 cumulative IPC: 1.37732 (Simulation time: 0 hr 13 min 35 sec) 
Finished CPU 0 instructions: 50000000 cycles: 36302332 cumulative IPC: 1.37732 (Simulation time: 0 hr 13 min 35 sec) 

ChampSim completed all CPUs

Region of Interest Statistics

CPU 0 cumulative IPC: 1.37732 instructions: 50000000 cycles: 36302332

SHEET
IPC : 1.37732

L1D TOTAL     ACCESS:   18934288  HIT:   17451716  MISS:    1482572
L1D LOAD      ACCESS:    6478982  HIT:    5797358  MISS:     681624
L1D RFO       ACCESS:    6175961  HIT:    6025974  MISS:     149987
L1D PREFETCH  ACCESS:    6279345  HIT:    5628384  MISS:     650961
L1D WRITEBACK ACCESS:          0  HIT:          0  MISS:          0
L1D PREFETCH  REQUESTED:    6525337  ISSUED:    6418494  USEFUL:     142406  USELESS:     508562
L1D AVERAGE MISS LATENCY: 23.6363 cycles
L1D

SHEET
L1D-total_access : 18934288
L1D-total_hit : 17451716
L1D-total_miss : 1482572
L1D-load_access : 6478982
L1D-load_hit : 5797358
L1D-load_miss : 681624
L1D-rfo_access : 6175961
L1D-rfo_hit : 6025974
L1D-rfo_miss : 149987
L1D-prefetch_access : 6279345
L1D-prefetch_hit : 5628384
L1D-prefetch_miss : 650961
L1D-writeback_access : 0
L1D-writeback_hit : 0
L1D-writeback_miss : 0
L1D-prefetch_requested : 6525337
L1D-prefetch_issued : 6418494
L1D-prefetch_useful : 142406
L1D-prefetch_useless : 508562
L1D-Avg_miss_latency : 23.6363
L1D-Morteza_fill_l2_prefetches : 0

L1I TOTAL     ACCESS:   12667356  HIT:    9127769  MISS:    3539587
L1I LOAD      ACCESS:    9425649  HIT:    7835845  MISS:    1589804
L1I RFO       ACCESS:          0  HIT:          0  MISS:          0
L1I PREFETCH  ACCESS:    3241707  HIT:    1291924  MISS:    1949783
L1I WRITEBACK ACCESS:          0  HIT:          0  MISS:          0
L1I PREFETCH  REQUESTED:    4844002  ISSUED:    4844002  USEFUL:    1780495  USELESS:     169285
L1I AVERAGE MISS LATENCY: 9.85025 cycles
L1I

SHEET
L1I-total_access : 12667356
L1I-total_hit : 9127769
L1I-total_miss : 3539587
L1I-load_access : 9425649
L1I-load_hit : 7835845
L1I-load_miss : 1589804
L1I-rfo_access : 0
L1I-rfo_hit : 0
L1I-rfo_miss : 0
L1I-prefetch_access : 3241707
L1I-prefetch_hit : 1291924
L1I-prefetch_miss : 1949783
L1I-writeback_access : 0
L1I-writeback_hit : 0
L1I-writeback_miss : 0
L1I-prefetch_requested : 4844002
L1I-prefetch_issued : 4844002
L1I-prefetch_useful : 1780495
L1I-prefetch_useless : 169285
L1I-Avg_miss_latency : 9.85025
L1I-Morteza_fill_l2_prefetches : 0

L2C TOTAL     ACCESS:    7213195  HIT:    6919785  MISS:     293410
L2C LOAD      ACCESS:    1096820  HIT:     971551  MISS:     125269
L2C RFO       ACCESS:     148643  HIT:     127990  MISS:      20653
L2C PREFETCH  ACCESS:    5601138  HIT:    5456573  MISS:     144565
L2C WRITEBACK ACCESS:     366594  HIT:     363671  MISS:       2923
L2C PREFETCH  REQUESTED:    5696828  ISSUED:    5688989  USEFUL:      11208  USELESS:     133080
L2C AVERAGE MISS LATENCY: 50.2875 cycles
L2C

SHEET
L2C-total_access : 7213195
L2C-total_hit : 6919785
L2C-total_miss : 293410
L2C-load_access : 1096820
L2C-load_hit : 971551
L2C-load_miss : 125269
L2C-rfo_access : 148643
L2C-rfo_hit : 127990
L2C-rfo_miss : 20653
L2C-prefetch_access : 5601138
L2C-prefetch_hit : 5456573
L2C-prefetch_miss : 144565
L2C-writeback_access : 366594
L2C-writeback_hit : 363671
L2C-writeback_miss : 2923
L2C-prefetch_requested : 5696828
L2C-prefetch_issued : 5688989
L2C-prefetch_useful : 11208
L2C-prefetch_useless : 133080
L2C-Avg_miss_latency : 50.2875
L2C-Morteza_fill_l2_prefetches : 1905322

LLC TOTAL     ACCESS:    2159201  HIT:    2094506  MISS:      64695
LLC LOAD      ACCESS:     125241  HIT:     110374  MISS:      14867
LLC RFO       ACCESS:      20653  HIT:      17371  MISS:       3282
LLC PREFETCH  ACCESS:    1908872  HIT:    1862620  MISS:      46252
LLC WRITEBACK ACCESS:     104435  HIT:     104141  MISS:        294
LLC PREFETCH  REQUESTED:          0  ISSUED:          0  USEFUL:       7462  USELESS:      38287
LLC AVERAGE MISS LATENCY: 170.447 cycles
LLC

SHEET
LLC-total_access : 2159201
LLC-total_hit : 2094506
LLC-total_miss : 64695
LLC-load_access : 125241
LLC-load_hit : 110374
LLC-load_miss : 14867
LLC-rfo_access : 20653
LLC-rfo_hit : 17371
LLC-rfo_miss : 3282
LLC-prefetch_access : 1908872
LLC-prefetch_hit : 1862620
LLC-prefetch_miss : 46252
LLC-writeback_access : 104435
LLC-writeback_hit : 104141
LLC-writeback_miss : 294
LLC-prefetch_requested : 0
LLC-prefetch_issued : 0
LLC-prefetch_useful : 7462
LLC-prefetch_useless : 38287
LLC-Avg_miss_latency : 170.447
LLC-Morteza_fill_l2_prefetches : 1738287

Major fault: 0 Minor fault: 2482
num_of_hits: 9928148
num_of_misses: 438674
hit_rate: 0.957685
observed_signatures: 3788
RAS addresses: 1132
branch_addresses: 6595
RAS match: 2519076	 RAS_mismatches: 658	 accuracy: 0.999739

 morteza stats start 

SHEET
RAS_access_cntr : 25194377
current_block_access_cntr : 42251094
table_access_cntr : 10147485
last_block_access_cntr : 42251094
last_signature_access_cntr : 10078950
miss_log_access_cntr : 4330537
prefetch_queue_access_cntr : 14441489
signature_access_cntr : 15118425
miss log count : 28


morteza stats endCPU 0 L1D next line prefetcher final stats

DRAM Statistics
 CHANNEL 0
 RQ ROW_BUFFER_HIT:       9539  ROW_BUFFER_MISS:      54856
 DBUS_CONGESTED:      25905
 WQ ROW_BUFFER_HIT:       4069  ROW_BUFFER_MISS:      17073  FULL:          0

 AVG_CONGESTED_CYCLE: 5

CPU 0 Branch Prediction Accuracy: 99.9029% MPKI: 0.19006 Average ROB Occupancy at Mispredict: 175.962

Branch types
NOT_BRANCH: 40217101 80.4342%
BRANCH_DIRECT_JUMP: 774599 1.5492%
BRANCH_INDIRECT: 108806 0.217612%
BRANCH_CONDITIONAL: 6379330 12.7587%
BRANCH_DIRECT_CALL: 1048808 2.09762%
BRANCH_INDIRECT_CALL: 211109 0.422218%
BRANCH_RETURN: 1259925 2.51985%
BRANCH_OTHER: 0 0%

