Initialize SIGNATURE TABLE
ST_SET: 1
ST_WAY: 256
ST_TAG_BIT: 16
ST_TAG_MASK: ffff

Initialize PATTERN TABLE
PT_SET: 512
PT_WAY: 4
SIG_DELTA_BIT: 7
C_SIG_BIT: 4
C_DELTA_BIT: 4

Initialize PREFETCH FILTER
FILTER_SET: 1024

*** ChampSim Multicore Out-of-Order Simulator ***

Warmup Instructions: 50000000
Simulation Instructions: 50000000
Number of CPUs: 1
LLC sets: 2048
LLC ways: 16
Off-chip DRAM Size: 4096 MB Channels: 1 Width: 64-bit Data Rate: 3200 MT/s

CPU 0 runs /home/mbaradaran/ChampSim/dpc3_traces/server_039.champsimtrace.xz
CPU 0 L1D next line prefetcher
Heartbeat CPU 0 instructions: 10000003 cycles: 3451653 heartbeat IPC: 2.89716 cumulative IPC: 2.89716 (Simulation time: 0 hr 1 min 30 sec) 
Heartbeat CPU 0 instructions: 20000002 cycles: 6896417 heartbeat IPC: 2.90296 cumulative IPC: 2.90006 (Simulation time: 0 hr 2 min 53 sec) 
Heartbeat CPU 0 instructions: 30000001 cycles: 10343021 heartbeat IPC: 2.90141 cumulative IPC: 2.90051 (Simulation time: 0 hr 4 min 14 sec) 
Heartbeat CPU 0 instructions: 40000002 cycles: 13785013 heartbeat IPC: 2.90529 cumulative IPC: 2.9017 (Simulation time: 0 hr 5 min 42 sec) 
Heartbeat CPU 0 instructions: 50000001 cycles: 17226373 heartbeat IPC: 2.90583 cumulative IPC: 2.90253 (Simulation time: 0 hr 7 min 11 sec) 

Warmup complete CPU 0 instructions: 50000001 cycles: 17226373 (Simulation time: 0 hr 7 min 11 sec) 

Heartbeat CPU 0 instructions: 60000000 cycles: 23748749 heartbeat IPC: 1.53318 cumulative IPC: 1.53318 (Simulation time: 0 hr 8 min 16 sec) 
Heartbeat CPU 0 instructions: 70000000 cycles: 30267530 heartbeat IPC: 1.53403 cumulative IPC: 1.53361 (Simulation time: 0 hr 9 min 19 sec) 
Heartbeat CPU 0 instructions: 80000000 cycles: 36794911 heartbeat IPC: 1.53201 cumulative IPC: 1.53307 (Simulation time: 0 hr 10 min 16 sec) 
Heartbeat CPU 0 instructions: 90000001 cycles: 43367910 heartbeat IPC: 1.52138 cumulative IPC: 1.53013 (Simulation time: 0 hr 11 min 12 sec) 
Heartbeat CPU 0 instructions: 100000002 cycles: 49935715 heartbeat IPC: 1.52258 cumulative IPC: 1.52862 (Simulation time: 0 hr 12 min 7 sec) 
Finished CPU 0 instructions: 50000001 cycles: 32709342 cumulative IPC: 1.52862 (Simulation time: 0 hr 12 min 7 sec) 

ChampSim completed all CPUs

Region of Interest Statistics

CPU 0 cumulative IPC: 1.52862 instructions: 50000001 cycles: 32709342

SHEET
IPC : 1.52862

L1D TOTAL     ACCESS:   21140484  HIT:   20645417  MISS:     495067
L1D LOAD      ACCESS:    7084214  HIT:    6863125  MISS:     221089
L1D RFO       ACCESS:    7122073  HIT:    7054035  MISS:      68038
L1D PREFETCH  ACCESS:    6934197  HIT:    6728257  MISS:     205940
L1D WRITEBACK ACCESS:          0  HIT:          0  MISS:          0
L1D PREFETCH  REQUESTED:    7101279  ISSUED:    7003506  USEFUL:      49673  USELESS:     156271
L1D AVERAGE MISS LATENCY: 14.9417 cycles
L1D

SHEET
L1D-total_access : 21140484
L1D-total_hit : 20645417
L1D-total_miss : 495067
L1D-load_access : 7084214
L1D-load_hit : 6863125
L1D-load_miss : 221089
L1D-rfo_access : 7122073
L1D-rfo_hit : 7054035
L1D-rfo_miss : 68038
L1D-prefetch_access : 6934197
L1D-prefetch_hit : 6728257
L1D-prefetch_miss : 205940
L1D-writeback_access : 0
L1D-writeback_hit : 0
L1D-writeback_miss : 0
L1D-prefetch_requested : 7101279
L1D-prefetch_issued : 7003506
L1D-prefetch_useful : 49673
L1D-prefetch_useless : 156271
L1D-Avg_miss_latency : 14.9417
L1D-Morteza_fill_l2_prefetches : 0

L1I TOTAL     ACCESS:   12828198  HIT:    8516634  MISS:    4311564
L1I LOAD      ACCESS:    9136386  HIT:    7460379  MISS:    1676007
L1I RFO       ACCESS:          0  HIT:          0  MISS:          0
L1I PREFETCH  ACCESS:    3691812  HIT:    1056255  MISS:    2635557
L1I WRITEBACK ACCESS:          0  HIT:          0  MISS:          0
L1I PREFETCH  REQUESTED:    5736548  ISSUED:    5736548  USEFUL:    2380961  USELESS:     254592
L1I AVERAGE MISS LATENCY: 9.20907 cycles
L1I

SHEET
L1I-total_access : 12828198
L1I-total_hit : 8516634
L1I-total_miss : 4311564
L1I-load_access : 9136386
L1I-load_hit : 7460379
L1I-load_miss : 1676007
L1I-rfo_access : 0
L1I-rfo_hit : 0
L1I-rfo_miss : 0
L1I-prefetch_access : 3691812
L1I-prefetch_hit : 1056255
L1I-prefetch_miss : 2635557
L1I-writeback_access : 0
L1I-writeback_hit : 0
L1I-writeback_miss : 0
L1I-prefetch_requested : 5736548
L1I-prefetch_issued : 5736548
L1I-prefetch_useful : 2380961
L1I-prefetch_useless : 254592
L1I-Avg_miss_latency : 9.20907
L1I-Morteza_fill_l2_prefetches : 0

L2C TOTAL     ACCESS:    6705367  HIT:    6705312  MISS:         55
L2C LOAD      ACCESS:     388167  HIT:     388165  MISS:          2
L2C RFO       ACCESS:      66858  HIT:      66858  MISS:          0
L2C PREFETCH  ACCESS:    6070244  HIT:    6070191  MISS:         53
L2C WRITEBACK ACCESS:     180098  HIT:     180098  MISS:          0
L2C PREFETCH  REQUESTED:    4787728  ISSUED:    4786650  USEFUL:          2  USELESS:          0
L2C AVERAGE MISS LATENCY: 48.0909 cycles
L2C

SHEET
L2C-total_access : 6705367
L2C-total_hit : 6705312
L2C-total_miss : 55
L2C-load_access : 388167
L2C-load_hit : 388165
L2C-load_miss : 2
L2C-rfo_access : 66858
L2C-rfo_hit : 66858
L2C-rfo_miss : 0
L2C-prefetch_access : 6070244
L2C-prefetch_hit : 6070191
L2C-prefetch_miss : 53
L2C-writeback_access : 180098
L2C-writeback_hit : 180098
L2C-writeback_miss : 0
L2C-prefetch_requested : 4787728
L2C-prefetch_issued : 4786650
L2C-prefetch_useful : 2
L2C-prefetch_useless : 0
L2C-Avg_miss_latency : 48.0909
L2C-Morteza_fill_l2_prefetches : 1798291

LLC TOTAL     ACCESS:    1017546  HIT:    1017030  MISS:        516
LLC LOAD      ACCESS:          2  HIT:          1  MISS:          1
LLC RFO       ACCESS:          0  HIT:          0  MISS:          0
LLC PREFETCH  ACCESS:    1017544  HIT:    1017029  MISS:        515
LLC WRITEBACK ACCESS:          0  HIT:          0  MISS:          0
LLC PREFETCH  REQUESTED:          0  ISSUED:          0  USEFUL:          1  USELESS:          0
LLC AVERAGE MISS LATENCY: 168.849 cycles
LLC

SHEET
LLC-total_access : 1017546
LLC-total_hit : 1017030
LLC-total_miss : 516
LLC-load_access : 2
LLC-load_hit : 1
LLC-load_miss : 1
LLC-rfo_access : 0
LLC-rfo_hit : 0
LLC-rfo_miss : 0
LLC-prefetch_access : 1017544
LLC-prefetch_hit : 1017029
LLC-prefetch_miss : 515
LLC-writeback_access : 0
LLC-writeback_hit : 0
LLC-writeback_miss : 0
LLC-prefetch_requested : 0
LLC-prefetch_issued : 0
LLC-prefetch_useful : 1
LLC-prefetch_useless : 0
LLC-Avg_miss_latency : 168.849
LLC-Morteza_fill_l2_prefetches : 1017029

Major fault: 0 Minor fault: 356
num_of_hits: 9797464
num_of_misses: 9964
hit_rate: 0.998984
observed_signatures: 2091
RAS addresses: 573
branch_addresses: 3434
RAS match: 2407789	 RAS_mismatches: 7684	 accuracy: 0.996819

 morteza stats start 

SHEET
RAS_access_cntr : 24148368
current_block_access_cntr : 41147680
table_access_cntr : 9802445
last_block_access_cntr : 41147680
last_signature_access_cntr : 9661956
miss_log_access_cntr : 4039077
prefetch_queue_access_cntr : 15906642
signature_access_cntr : 14492934
miss log count : 18


morteza stats endCPU 0 L1D next line prefetcher final stats

DRAM Statistics
 CHANNEL 0
 RQ ROW_BUFFER_HIT:         73  ROW_BUFFER_MISS:        443
 DBUS_CONGESTED:         81
 WQ ROW_BUFFER_HIT:          0  ROW_BUFFER_MISS:          0  FULL:          0

 AVG_CONGESTED_CYCLE: 5

CPU 0 Branch Prediction Accuracy: 99.9091% MPKI: 0.1547 Average ROB Occupancy at Mispredict: 131.816

Branch types
NOT_BRANCH: 41494847 82.9897%
BRANCH_DIRECT_JUMP: 491306 0.982612%
BRANCH_INDIRECT: 0 0%
BRANCH_CONDITIONAL: 5595233 11.1905%
BRANCH_DIRECT_CALL: 1028408 2.05682%
BRANCH_INDIRECT_CALL: 180755 0.36151%
BRANCH_RETURN: 1209170 2.41834%
BRANCH_OTHER: 0 0%

