Initialize SIGNATURE TABLE
ST_SET: 1
ST_WAY: 256
ST_TAG_BIT: 16
ST_TAG_MASK: ffff

Initialize PATTERN TABLE
PT_SET: 512
PT_WAY: 4
SIG_DELTA_BIT: 7
C_SIG_BIT: 4
C_DELTA_BIT: 4

Initialize PREFETCH FILTER
FILTER_SET: 1024

*** ChampSim Multicore Out-of-Order Simulator ***

Warmup Instructions: 50000000
Simulation Instructions: 50000000
Number of CPUs: 1
LLC sets: 2048
LLC ways: 16
Off-chip DRAM Size: 4096 MB Channels: 1 Width: 64-bit Data Rate: 3200 MT/s

CPU 0 runs /home/mbaradaran/ChampSim/dpc3_traces/spec_gobmk_001.champsimtrace.xz
CPU 0 L1D next line prefetcher
Heartbeat CPU 0 instructions: 10000003 cycles: 3509649 heartbeat IPC: 2.84929 cumulative IPC: 2.84929 (Simulation time: 0 hr 1 min 10 sec) 
Heartbeat CPU 0 instructions: 20000002 cycles: 6990696 heartbeat IPC: 2.8727 cumulative IPC: 2.86095 (Simulation time: 0 hr 2 min 18 sec) 
Heartbeat CPU 0 instructions: 30000002 cycles: 10509403 heartbeat IPC: 2.84195 cumulative IPC: 2.85459 (Simulation time: 0 hr 3 min 24 sec) 
Heartbeat CPU 0 instructions: 40000001 cycles: 14028230 heartbeat IPC: 2.84186 cumulative IPC: 2.85139 (Simulation time: 0 hr 4 min 25 sec) 
Heartbeat CPU 0 instructions: 50000001 cycles: 17568061 heartbeat IPC: 2.82499 cumulative IPC: 2.84607 (Simulation time: 0 hr 5 min 23 sec) 

Warmup complete CPU 0 instructions: 50000001 cycles: 17568061 (Simulation time: 0 hr 5 min 23 sec) 

Heartbeat CPU 0 instructions: 60000000 cycles: 26661542 heartbeat IPC: 1.09969 cumulative IPC: 1.09969 (Simulation time: 0 hr 6 min 8 sec) 
Heartbeat CPU 0 instructions: 70000002 cycles: 35468301 heartbeat IPC: 1.13549 cumulative IPC: 1.1173 (Simulation time: 0 hr 6 min 52 sec) 
Heartbeat CPU 0 instructions: 80000003 cycles: 44592203 heartbeat IPC: 1.09602 cumulative IPC: 1.11012 (Simulation time: 0 hr 7 min 37 sec) 
Heartbeat CPU 0 instructions: 90000001 cycles: 53332829 heartbeat IPC: 1.14408 cumulative IPC: 1.11842 (Simulation time: 0 hr 8 min 21 sec) 
Heartbeat CPU 0 instructions: 100000003 cycles: 62462533 heartbeat IPC: 1.09533 cumulative IPC: 1.11372 (Simulation time: 0 hr 9 min 5 sec) 
Finished CPU 0 instructions: 50000002 cycles: 44894472 cumulative IPC: 1.11372 (Simulation time: 0 hr 9 min 5 sec) 

ChampSim completed all CPUs

Region of Interest Statistics

CPU 0 cumulative IPC: 1.11372 instructions: 50000002 cycles: 44894472

SHEET
IPC : 1.11372

L1D TOTAL     ACCESS:   18100451  HIT:   17720891  MISS:     379560
L1D LOAD      ACCESS:    7266637  HIT:    7131474  MISS:     135163
L1D RFO       ACCESS:    3706464  HIT:    3602008  MISS:     104456
L1D PREFETCH  ACCESS:    7127350  HIT:    6987409  MISS:     139941
L1D WRITEBACK ACCESS:          0  HIT:          0  MISS:          0
L1D PREFETCH  REQUESTED:    7271626  ISSUED:    7188743  USEFUL:      45254  USELESS:      94693
L1D AVERAGE MISS LATENCY: 33.6014 cycles
L1D

SHEET
L1D-total_access : 18100451
L1D-total_hit : 17720891
L1D-total_miss : 379560
L1D-load_access : 7266637
L1D-load_hit : 7131474
L1D-load_miss : 135163
L1D-rfo_access : 3706464
L1D-rfo_hit : 3602008
L1D-rfo_miss : 104456
L1D-prefetch_access : 7127350
L1D-prefetch_hit : 6987409
L1D-prefetch_miss : 139941
L1D-writeback_access : 0
L1D-writeback_hit : 0
L1D-writeback_miss : 0
L1D-prefetch_requested : 7271626
L1D-prefetch_issued : 7188743
L1D-prefetch_useful : 45254
L1D-prefetch_useless : 94693
L1D-Avg_miss_latency : 33.6014
L1D-Morteza_fill_l2_prefetches : 0

L1I TOTAL     ACCESS:   11212721  HIT:   10316939  MISS:     895782
L1I LOAD      ACCESS:    8974725  HIT:    8672876  MISS:     301849
L1I RFO       ACCESS:          0  HIT:          0  MISS:          0
L1I PREFETCH  ACCESS:    2237996  HIT:    1644063  MISS:     593933
L1I WRITEBACK ACCESS:          0  HIT:          0  MISS:          0
L1I PREFETCH  REQUESTED:    2396440  ISSUED:    2396440  USEFUL:     409557  USELESS:     184336
L1I AVERAGE MISS LATENCY: 12.8022 cycles
L1I

SHEET
L1I-total_access : 11212721
L1I-total_hit : 10316939
L1I-total_miss : 895782
L1I-load_access : 8974725
L1I-load_hit : 8672876
L1I-load_miss : 301849
L1I-rfo_access : 0
L1I-rfo_hit : 0
L1I-rfo_miss : 0
L1I-prefetch_access : 2237996
L1I-prefetch_hit : 1644063
L1I-prefetch_miss : 593933
L1I-writeback_access : 0
L1I-writeback_hit : 0
L1I-writeback_miss : 0
L1I-prefetch_requested : 2396440
L1I-prefetch_issued : 2396440
L1I-prefetch_useful : 409557
L1I-prefetch_useless : 184336
L1I-Avg_miss_latency : 12.8022
L1I-Morteza_fill_l2_prefetches : 0

L2C TOTAL     ACCESS:    1958120  HIT:    1835401  MISS:     122719
L2C LOAD      ACCESS:     294934  HIT:     254347  MISS:      40587
L2C RFO       ACCESS:     104095  HIT:      70403  MISS:      33692
L2C PREFETCH  ACCESS:    1419786  HIT:    1371410  MISS:      48376
L2C WRITEBACK ACCESS:     139305  HIT:     139241  MISS:         64
L2C PREFETCH  REQUESTED:    1051891  ISSUED:    1051856  USEFUL:       4969  USELESS:      43477
L2C AVERAGE MISS LATENCY: 65.7026 cycles
L2C

SHEET
L2C-total_access : 1958120
L2C-total_hit : 1835401
L2C-total_miss : 122719
L2C-load_access : 294934
L2C-load_hit : 254347
L2C-load_miss : 40587
L2C-rfo_access : 104095
L2C-rfo_hit : 70403
L2C-rfo_miss : 33692
L2C-prefetch_access : 1419786
L2C-prefetch_hit : 1371410
L2C-prefetch_miss : 48376
L2C-writeback_access : 139305
L2C-writeback_hit : 139241
L2C-writeback_miss : 64
L2C-prefetch_requested : 1051891
L2C-prefetch_issued : 1051856
L2C-prefetch_useful : 4969
L2C-prefetch_useless : 43477
L2C-Avg_miss_latency : 65.7026
L2C-Morteza_fill_l2_prefetches : 558433

LLC TOTAL     ACCESS:     295161  HIT:     258169  MISS:      36992
LLC LOAD      ACCESS:      40585  HIT:      32049  MISS:       8536
LLC RFO       ACCESS:      33692  HIT:      26673  MISS:       7019
LLC PREFETCH  ACCESS:     176480  HIT:     155363  MISS:      21117
LLC WRITEBACK ACCESS:      44404  HIT:      44084  MISS:        320
LLC PREFETCH  REQUESTED:          0  ISSUED:          0  USEFUL:       1470  USELESS:      17897
LLC AVERAGE MISS LATENCY: 178.494 cycles
LLC

SHEET
LLC-total_access : 295161
LLC-total_hit : 258169
LLC-total_miss : 36992
LLC-load_access : 40585
LLC-load_hit : 32049
LLC-load_miss : 8536
LLC-rfo_access : 33692
LLC-rfo_hit : 26673
LLC-rfo_miss : 7019
LLC-prefetch_access : 176480
LLC-prefetch_hit : 155363
LLC-prefetch_miss : 21117
LLC-writeback_access : 44404
LLC-writeback_hit : 44084
LLC-writeback_miss : 320
LLC-prefetch_requested : 0
LLC-prefetch_issued : 0
LLC-prefetch_useful : 1470
LLC-prefetch_useless : 17897
LLC-Avg_miss_latency : 178.494
LLC-Morteza_fill_l2_prefetches : 117441

Major fault: 0 Minor fault: 4156
num_of_hits: 2869775
num_of_misses: 245505
hit_rate: 0.921193
observed_signatures: 23260
RAS addresses: 3014
branch_addresses: 15575
RAS match: 771413	 RAS_mismatches: 6994	 accuracy: 0.991015

 morteza stats start 

SHEET
RAS_access_cntr : 7781895
current_block_access_cntr : 40848698
table_access_cntr : 2992508
last_block_access_cntr : 40848698
last_signature_access_cntr : 3113710
miss_log_access_cntr : 955171
prefetch_queue_access_cntr : 5907371
signature_access_cntr : 4670565
miss log count : 66


morteza stats endCPU 0 L1D next line prefetcher final stats

DRAM Statistics
 CHANNEL 0
 RQ ROW_BUFFER_HIT:       4872  ROW_BUFFER_MISS:      31800
 DBUS_CONGESTED:      21048
 WQ ROW_BUFFER_HIT:       1628  ROW_BUFFER_MISS:      15019  FULL:          0

 AVG_CONGESTED_CYCLE: 4

CPU 0 Branch Prediction Accuracy: 94.7729% MPKI: 9.72684 Average ROB Occupancy at Mispredict: 51.2277

Branch types
NOT_BRANCH: 40695383 81.3908%
BRANCH_DIRECT_JUMP: 422107 0.844214%
BRANCH_INDIRECT: 65 0.00013%
BRANCH_CONDITIONAL: 8105005 16.21%
BRANCH_DIRECT_CALL: 374913 0.749826%
BRANCH_INDIRECT_CALL: 13657 0.027314%
BRANCH_RETURN: 388556 0.777112%
BRANCH_OTHER: 0 0%

