Initialize SIGNATURE TABLE
ST_SET: 1
ST_WAY: 256
ST_TAG_BIT: 16
ST_TAG_MASK: ffff

Initialize PATTERN TABLE
PT_SET: 512
PT_WAY: 4
SIG_DELTA_BIT: 7
C_SIG_BIT: 4
C_DELTA_BIT: 4

Initialize PREFETCH FILTER
FILTER_SET: 1024

*** ChampSim Multicore Out-of-Order Simulator ***

Warmup Instructions: 50000000
Simulation Instructions: 50000000
Number of CPUs: 1
LLC sets: 2048
LLC ways: 16
Off-chip DRAM Size: 4096 MB Channels: 1 Width: 64-bit Data Rate: 3200 MT/s

CPU 0 runs /home/mbaradaran/ChampSim/dpc3_traces/spec_perlbench_001.champsimtrace.xz
CPU 0 L1D next line prefetcher
Heartbeat CPU 0 instructions: 10000000 cycles: 3275935 heartbeat IPC: 3.05256 cumulative IPC: 3.05256 (Simulation time: 0 hr 1 min 11 sec) 
Heartbeat CPU 0 instructions: 20000000 cycles: 6540432 heartbeat IPC: 3.06326 cumulative IPC: 3.0579 (Simulation time: 0 hr 2 min 26 sec) 
Heartbeat CPU 0 instructions: 30000002 cycles: 9857245 heartbeat IPC: 3.01494 cumulative IPC: 3.04345 (Simulation time: 0 hr 3 min 39 sec) 
Heartbeat CPU 0 instructions: 40000002 cycles: 13112909 heartbeat IPC: 3.07157 cumulative IPC: 3.05043 (Simulation time: 0 hr 4 min 45 sec) 
Heartbeat CPU 0 instructions: 50000001 cycles: 16387010 heartbeat IPC: 3.05427 cumulative IPC: 3.0512 (Simulation time: 0 hr 5 min 48 sec) 

Warmup complete CPU 0 instructions: 50000001 cycles: 16387010 (Simulation time: 0 hr 5 min 48 sec) 

Heartbeat CPU 0 instructions: 60000001 cycles: 24978665 heartbeat IPC: 1.16392 cumulative IPC: 1.16392 (Simulation time: 0 hr 6 min 45 sec) 
Heartbeat CPU 0 instructions: 70000000 cycles: 33473901 heartbeat IPC: 1.17713 cumulative IPC: 1.17049 (Simulation time: 0 hr 7 min 46 sec) 
Heartbeat CPU 0 instructions: 80000000 cycles: 42059852 heartbeat IPC: 1.16469 cumulative IPC: 1.16855 (Simulation time: 0 hr 8 min 44 sec) 
Heartbeat CPU 0 instructions: 90000000 cycles: 47798475 heartbeat IPC: 1.74258 cumulative IPC: 1.27342 (Simulation time: 0 hr 9 min 29 sec) 
Heartbeat CPU 0 instructions: 100000002 cycles: 53740277 heartbeat IPC: 1.68299 cumulative IPC: 1.33857 (Simulation time: 0 hr 10 min 15 sec) 
Finished CPU 0 instructions: 50000001 cycles: 37353267 cumulative IPC: 1.33857 (Simulation time: 0 hr 10 min 15 sec) 

ChampSim completed all CPUs

Region of Interest Statistics

CPU 0 cumulative IPC: 1.33857 instructions: 50000001 cycles: 37353267

SHEET
IPC : 1.33857

L1D TOTAL     ACCESS:   20859722  HIT:   20444607  MISS:     415115
L1D LOAD      ACCESS:    7256860  HIT:    7043414  MISS:     213446
L1D RFO       ACCESS:    6545131  HIT:    6526614  MISS:      18517
L1D PREFETCH  ACCESS:    7057731  HIT:    6874579  MISS:     183152
L1D WRITEBACK ACCESS:          0  HIT:          0  MISS:          0
L1D PREFETCH  REQUESTED:    7273386  ISSUED:    7160059  USEFUL:      55482  USELESS:     127665
L1D AVERAGE MISS LATENCY: 58.2218 cycles
L1D

SHEET
L1D-total_access : 20859722
L1D-total_hit : 20444607
L1D-total_miss : 415115
L1D-load_access : 7256860
L1D-load_hit : 7043414
L1D-load_miss : 213446
L1D-rfo_access : 6545131
L1D-rfo_hit : 6526614
L1D-rfo_miss : 18517
L1D-prefetch_access : 7057731
L1D-prefetch_hit : 6874579
L1D-prefetch_miss : 183152
L1D-writeback_access : 0
L1D-writeback_hit : 0
L1D-writeback_miss : 0
L1D-prefetch_requested : 7273386
L1D-prefetch_issued : 7160059
L1D-prefetch_useful : 55482
L1D-prefetch_useless : 127665
L1D-Avg_miss_latency : 58.2218
L1D-Morteza_fill_l2_prefetches : 0

L1I TOTAL     ACCESS:   13263517  HIT:   12667288  MISS:     596229
L1I LOAD      ACCESS:    9153445  HIT:    8870579  MISS:     282866
L1I RFO       ACCESS:          0  HIT:          0  MISS:          0
L1I PREFETCH  ACCESS:    4110072  HIT:    3796709  MISS:     313363
L1I WRITEBACK ACCESS:          0  HIT:          0  MISS:          0
L1I PREFETCH  REQUESTED:    4197920  ISSUED:    4197920  USEFUL:     224891  USELESS:      88479
L1I AVERAGE MISS LATENCY: 15.091 cycles
L1I

SHEET
L1I-total_access : 13263517
L1I-total_hit : 12667288
L1I-total_miss : 596229
L1I-load_access : 9153445
L1I-load_hit : 8870579
L1I-load_miss : 282866
L1I-rfo_access : 0
L1I-rfo_hit : 0
L1I-rfo_miss : 0
L1I-prefetch_access : 4110072
L1I-prefetch_hit : 3796709
L1I-prefetch_miss : 313363
L1I-writeback_access : 0
L1I-writeback_hit : 0
L1I-writeback_miss : 0
L1I-prefetch_requested : 4197920
L1I-prefetch_issued : 4197920
L1I-prefetch_useful : 224891
L1I-prefetch_useless : 88479
L1I-Avg_miss_latency : 15.091
L1I-Morteza_fill_l2_prefetches : 0

L2C TOTAL     ACCESS:    1506135  HIT:    1341802  MISS:     164333
L2C LOAD      ACCESS:     424587  HIT:     337932  MISS:      86655
L2C RFO       ACCESS:      18293  HIT:      12989  MISS:       5304
L2C PREFETCH  ACCESS:     984289  HIT:     912236  MISS:      72053
L2C WRITEBACK ACCESS:      78966  HIT:      78645  MISS:        321
L2C PREFETCH  REQUESTED:     869890  ISSUED:     869884  USEFUL:       5982  USELESS:      66164
L2C AVERAGE MISS LATENCY: 119.92 cycles
L2C

SHEET
L2C-total_access : 1506135
L2C-total_hit : 1341802
L2C-total_miss : 164333
L2C-load_access : 424587
L2C-load_hit : 337932
L2C-load_miss : 86655
L2C-rfo_access : 18293
L2C-rfo_hit : 12989
L2C-rfo_miss : 5304
L2C-prefetch_access : 984289
L2C-prefetch_hit : 912236
L2C-prefetch_miss : 72053
L2C-writeback_access : 78966
L2C-writeback_hit : 78645
L2C-writeback_miss : 321
L2C-prefetch_requested : 869890
L2C-prefetch_issued : 869884
L2C-prefetch_useful : 5982
L2C-prefetch_useless : 66164
L2C-Avg_miss_latency : 119.92
L2C-Morteza_fill_l2_prefetches : 420896

LLC TOTAL     ACCESS:     391311  HIT:     247354  MISS:     143957
LLC LOAD      ACCESS:      86641  HIT:      35680  MISS:      50961
LLC RFO       ACCESS:       5304  HIT:       2230  MISS:       3074
LLC PREFETCH  ACCESS:     274447  HIT:     185060  MISS:      89387
LLC WRITEBACK ACCESS:      24919  HIT:      24384  MISS:        535
LLC PREFETCH  REQUESTED:          0  ISSUED:          0  USEFUL:      15209  USELESS:      74440
LLC AVERAGE MISS LATENCY: 158.866 cycles
LLC

SHEET
LLC-total_access : 391311
LLC-total_hit : 247354
LLC-total_miss : 143957
LLC-load_access : 86641
LLC-load_hit : 35680
LLC-load_miss : 50961
LLC-rfo_access : 5304
LLC-rfo_hit : 2230
LLC-rfo_miss : 3074
LLC-prefetch_access : 274447
LLC-prefetch_hit : 185060
LLC-prefetch_miss : 89387
LLC-writeback_access : 24919
LLC-writeback_hit : 24384
LLC-writeback_miss : 535
LLC-prefetch_requested : 0
LLC-prefetch_issued : 0
LLC-prefetch_useful : 15209
LLC-prefetch_useless : 74440
LLC-Avg_miss_latency : 158.866
LLC-Morteza_fill_l2_prefetches : 153721

Major fault: 0 Minor fault: 6364
num_of_hits: 4991596
num_of_misses: 43664
hit_rate: 0.991328
observed_signatures: 8210
RAS addresses: 1541
branch_addresses: 11321
RAS match: 1254825	 RAS_mismatches: 3917	 accuracy: 0.996888

 morteza stats start 

SHEET
RAS_access_cntr : 10175599
current_block_access_cntr : 40314916
table_access_cntr : 5013422
last_block_access_cntr : 40314916
last_signature_access_cntr : 5034974
miss_log_access_cntr : 1015157
prefetch_queue_access_cntr : 11099843
signature_access_cntr : 7552461
miss log count : 43


morteza stats endCPU 0 L1D next line prefetcher final stats

DRAM Statistics
 CHANNEL 0
 RQ ROW_BUFFER_HIT:      32680  ROW_BUFFER_MISS:     110742
 DBUS_CONGESTED:      56681
 WQ ROW_BUFFER_HIT:       4244  ROW_BUFFER_MISS:      13126  FULL:          0

 AVG_CONGESTED_CYCLE: 4

CPU 0 Branch Prediction Accuracy: 98.7418% MPKI: 2.47758 Average ROB Occupancy at Mispredict: 70.8148

Branch types
NOT_BRANCH: 40154100 80.3082%
BRANCH_DIRECT_JUMP: 817094 1.63419%
BRANCH_INDIRECT: 303787 0.607574%
BRANCH_CONDITIONAL: 7492103 14.9842%
BRANCH_DIRECT_CALL: 471777 0.943554%
BRANCH_INDIRECT_CALL: 144546 0.289092%
BRANCH_RETURN: 616324 1.23265%
BRANCH_OTHER: 0 0%

