Initialize SIGNATURE TABLE
ST_SET: 1
ST_WAY: 256
ST_TAG_BIT: 16
ST_TAG_MASK: ffff

Initialize PATTERN TABLE
PT_SET: 512
PT_WAY: 4
SIG_DELTA_BIT: 7
C_SIG_BIT: 4
C_DELTA_BIT: 4

Initialize PREFETCH FILTER
FILTER_SET: 1024
MANA initialize 
tds: 2 tdm: 2
size MANA SINGLE: 15.5 KB
size MANA NULTIPLE: 0 KB
size HOBPT: 0.703125 KB
size SRQ: 0.14502 KB
size SABs: 0.290039 KB
size prefetch queue: 0.453125 KB
total: 17.0913 KB

*** ChampSim Multicore Out-of-Order Simulator ***

Warmup Instructions: 50000000
Simulation Instructions: 50000000
Number of CPUs: 1
LLC sets: 2048
LLC ways: 16
Off-chip DRAM Size: 4096 MB Channels: 1 Width: 64-bit Data Rate: 3200 MT/s

CPU 0 runs /home/mbaradaran/ChampSim/dpc3_traces/client_005.champsimtrace.xz
CPU 0 L1D next line prefetcher
Heartbeat CPU 0 instructions: 10000001 cycles: 3294094 heartbeat IPC: 3.03574 cumulative IPC: 3.03574 (Simulation time: 0 hr 1 min 37 sec) 
Heartbeat CPU 0 instructions: 20000002 cycles: 6702850 heartbeat IPC: 2.93362 cumulative IPC: 2.98381 (Simulation time: 0 hr 3 min 31 sec) 
Heartbeat CPU 0 instructions: 30000001 cycles: 10396504 heartbeat IPC: 2.70735 cumulative IPC: 2.88559 (Simulation time: 0 hr 5 min 32 sec) 
Heartbeat CPU 0 instructions: 40000000 cycles: 14074715 heartbeat IPC: 2.71871 cumulative IPC: 2.84198 (Simulation time: 0 hr 7 min 30 sec) 
Heartbeat CPU 0 instructions: 50000001 cycles: 17350199 heartbeat IPC: 3.05298 cumulative IPC: 2.88181 (Simulation time: 0 hr 9 min 20 sec) 

Warmup complete CPU 0 instructions: 50000001 cycles: 17350199 (Simulation time: 0 hr 9 min 20 sec) 

Heartbeat CPU 0 instructions: 60000002 cycles: 25649032 heartbeat IPC: 1.20499 cumulative IPC: 1.20499 (Simulation time: 0 hr 10 min 53 sec) 
Heartbeat CPU 0 instructions: 70000003 cycles: 33353320 heartbeat IPC: 1.29798 cumulative IPC: 1.24976 (Simulation time: 0 hr 12 min 41 sec) 
Heartbeat CPU 0 instructions: 80000001 cycles: 40519118 heartbeat IPC: 1.39552 cumulative IPC: 1.29484 (Simulation time: 0 hr 14 min 36 sec) 
Heartbeat CPU 0 instructions: 90000002 cycles: 50269535 heartbeat IPC: 1.0256 cumulative IPC: 1.21509 (Simulation time: 0 hr 16 min 34 sec) 
Heartbeat CPU 0 instructions: 100000002 cycles: 58396745 heartbeat IPC: 1.23043 cumulative IPC: 1.21813 (Simulation time: 0 hr 18 min 11 sec) 
Finished CPU 0 instructions: 50000001 cycles: 41046546 cumulative IPC: 1.21813 (Simulation time: 0 hr 18 min 11 sec) 

ChampSim completed all CPUs

Region of Interest Statistics

CPU 0 cumulative IPC: 1.21813 instructions: 50000001 cycles: 41046546

SHEET
IPC : 1.21813

L1D TOTAL     ACCESS:   20047137  HIT:   19510989  MISS:     536148
L1D LOAD      ACCESS:    6851801  HIT:    6680293  MISS:     171508
L1D RFO       ACCESS:    6808694  HIT:    6624584  MISS:     184110
L1D PREFETCH  ACCESS:    6386642  HIT:    6206112  MISS:     180530
L1D WRITEBACK ACCESS:          0  HIT:          0  MISS:          0
L1D PREFETCH  REQUESTED:    6876021  ISSUED:    6495343  USEFUL:      59996  USELESS:     120420
L1D AVERAGE MISS LATENCY: 93.0866 cycles
L1D

SHEET
L1D-total_access : 20047137
L1D-total_hit : 19510989
L1D-total_miss : 536148
L1D-load_access : 6851801
L1D-load_hit : 6680293
L1D-load_miss : 171508
L1D-rfo_access : 6808694
L1D-rfo_hit : 6624584
L1D-rfo_miss : 184110
L1D-prefetch_access : 6386642
L1D-prefetch_hit : 6206112
L1D-prefetch_miss : 180530
L1D-writeback_access : 0
L1D-writeback_hit : 0
L1D-writeback_miss : 0
L1D-prefetch_requested : 6876021
L1D-prefetch_issued : 6495343
L1D-prefetch_useful : 59996
L1D-prefetch_useless : 120420
L1D-Avg_miss_latency : 93.0866

L1I TOTAL     ACCESS:   19905448  HIT:   16395121  MISS:    3510327
L1I LOAD      ACCESS:    9385473  HIT:    8782360  MISS:     603113
L1I RFO       ACCESS:          0  HIT:          0  MISS:          0
L1I PREFETCH  ACCESS:   10519975  HIT:    7612761  MISS:    2907214
L1I WRITEBACK ACCESS:          0  HIT:          0  MISS:          0
L1I PREFETCH  REQUESTED:   11782092  ISSUED:   11455671  USEFUL:    1542962  USELESS:    1364167
L1I AVERAGE MISS LATENCY: 16.0032 cycles
L1I

SHEET
L1I-total_access : 19905448
L1I-total_hit : 16395121
L1I-total_miss : 3510327
L1I-load_access : 9385473
L1I-load_hit : 8782360
L1I-load_miss : 603113
L1I-rfo_access : 0
L1I-rfo_hit : 0
L1I-rfo_miss : 0
L1I-prefetch_access : 10519975
L1I-prefetch_hit : 7612761
L1I-prefetch_miss : 2907214
L1I-writeback_access : 0
L1I-writeback_hit : 0
L1I-writeback_miss : 0
L1I-prefetch_requested : 11782092
L1I-prefetch_issued : 11455671
L1I-prefetch_useful : 1542962
L1I-prefetch_useless : 1364167
L1I-Avg_miss_latency : 16.0032

L2C TOTAL     ACCESS:    5829744  HIT:    5441282  MISS:     388462
L2C LOAD      ACCESS:     640060  HIT:     542592  MISS:      97468
L2C RFO       ACCESS:     180428  HIT:      32074  MISS:     148354
L2C PREFETCH  ACCESS:    4756215  HIT:    4614922  MISS:     141293
L2C WRITEBACK ACCESS:     253041  HIT:     251694  MISS:       1347
L2C PREFETCH  REQUESTED:    3902337  ISSUED:    3901216  USEFUL:      20019  USELESS:     119615
L2C AVERAGE MISS LATENCY: 127.325 cycles
L2C

SHEET
L2C-total_access : 5829744
L2C-total_hit : 5441282
L2C-total_miss : 388462
L2C-load_access : 640060
L2C-load_hit : 542592
L2C-load_miss : 97468
L2C-rfo_access : 180428
L2C-rfo_hit : 32074
L2C-rfo_miss : 148354
L2C-prefetch_access : 4756215
L2C-prefetch_hit : 4614922
L2C-prefetch_miss : 141293
L2C-writeback_access : 253041
L2C-writeback_hit : 251694
L2C-writeback_miss : 1347
L2C-prefetch_requested : 3902337
L2C-prefetch_issued : 3901216
L2C-prefetch_useful : 20019
L2C-prefetch_useless : 119615
L2C-Avg_miss_latency : 127.325

LLC TOTAL     ACCESS:    1226184  HIT:     919802  MISS:     306382
LLC LOAD      ACCESS:      97456  HIT:      52602  MISS:      44854
LLC RFO       ACCESS:     148352  HIT:      17653  MISS:     130699
LLC PREFETCH  ACCESS:     781446  HIT:     651559  MISS:     129887
LLC WRITEBACK ACCESS:     198930  HIT:     197988  MISS:        942
LLC PREFETCH  REQUESTED:          0  ISSUED:          0  USEFUL:      29535  USELESS:      96399
LLC AVERAGE MISS LATENCY: 169.433 cycles
LLC

SHEET
LLC-total_access : 1226184
LLC-total_hit : 919802
LLC-total_miss : 306382
LLC-load_access : 97456
LLC-load_hit : 52602
LLC-load_miss : 44854
LLC-rfo_access : 148352
LLC-rfo_hit : 17653
LLC-rfo_miss : 130699
LLC-prefetch_access : 781446
LLC-prefetch_hit : 651559
LLC-prefetch_miss : 129887
LLC-writeback_access : 198930
LLC-writeback_hit : 197988
LLC-writeback_miss : 942
LLC-prefetch_requested : 0
LLC-prefetch_issued : 0
LLC-prefetch_useful : 29535
LLC-prefetch_useless : 96399
LLC-Avg_miss_latency : 169.433

Major fault: 0 Minor fault: 6084



Printing Logs
statHeadFound: 1031988
statHeadMissing: 863707
statStreamBufferHit: 12734599
statPrefetchEntryFound: 7794320
statCompactorMatch: 12075570
statStreamTrackerLookup: 14630294
statRecord: 2554724
statGetPointer: 1895695
statEnqueuePrefetch: 22059998
statPrefetchQueueIsFull: 35752
StreamBufferHitRate: 0.870427
Regions' size: 7939
next_region_correct: 1741088
next_region_wrong: 805679
next_region_correct_prediction: 0.683646
statStreamBufferLookups: 1053381168
statL1iLookups: 176479984
statCompactorLookups: 526690584
morteza: start

SHEET
mana_table_access_counter : 10384778
hobp_table_access_counter : 25631726
sab_access_counter : 20528919
srq_access_counter : 15495366

morteza: end
CPU 0 L1D next line prefetcher final stats

DRAM Statistics
 CHANNEL 0
 RQ ROW_BUFFER_HIT:      97724  ROW_BUFFER_MISS:     207700
 DBUS_CONGESTED:     238905
 WQ ROW_BUFFER_HIT:      52113  ROW_BUFFER_MISS:     131493  FULL:          0

 AVG_CONGESTED_CYCLE: 6

CPU 0 Branch Prediction Accuracy: 97.8666% MPKI: 3.9013 Average ROB Occupancy at Mispredict: 73.1696

Branch types
NOT_BRANCH: 40856330 81.7127%
BRANCH_DIRECT_JUMP: 484667 0.969334%
BRANCH_INDIRECT: 85086 0.170172%
BRANCH_CONDITIONAL: 6230887 12.4618%
BRANCH_DIRECT_CALL: 1028917 2.05783%
BRANCH_INDIRECT_CALL: 141825 0.28365%
BRANCH_RETURN: 1171986 2.34397%
BRANCH_OTHER: 0 0%

