Initialize SIGNATURE TABLE
ST_SET: 1
ST_WAY: 256
ST_TAG_BIT: 16
ST_TAG_MASK: ffff

Initialize PATTERN TABLE
PT_SET: 512
PT_WAY: 4
SIG_DELTA_BIT: 7
C_SIG_BIT: 4
C_DELTA_BIT: 4

Initialize PREFETCH FILTER
FILTER_SET: 1024
MANA initialize 
tds: 2 tdm: 2
size MANA SINGLE: 15.5 KB
size MANA NULTIPLE: 0 KB
size HOBPT: 0.703125 KB
size SRQ: 0.14502 KB
size SABs: 0.290039 KB
size prefetch queue: 0.453125 KB
total: 17.0913 KB

*** ChampSim Multicore Out-of-Order Simulator ***

Warmup Instructions: 50000000
Simulation Instructions: 50000000
Number of CPUs: 1
LLC sets: 2048
LLC ways: 16
Off-chip DRAM Size: 4096 MB Channels: 1 Width: 64-bit Data Rate: 3200 MT/s

CPU 0 runs /home/mbaradaran/ChampSim/dpc3_traces/client_008.champsimtrace.xz
CPU 0 L1D next line prefetcher
Heartbeat CPU 0 instructions: 10000001 cycles: 3759728 heartbeat IPC: 2.65977 cumulative IPC: 2.65977 (Simulation time: 0 hr 1 min 53 sec) 
Heartbeat CPU 0 instructions: 20000001 cycles: 7541491 heartbeat IPC: 2.64427 cumulative IPC: 2.652 (Simulation time: 0 hr 3 min 51 sec) 
Heartbeat CPU 0 instructions: 30000000 cycles: 11274252 heartbeat IPC: 2.67898 cumulative IPC: 2.66093 (Simulation time: 0 hr 5 min 44 sec) 
Heartbeat CPU 0 instructions: 40000002 cycles: 15073940 heartbeat IPC: 2.6318 cumulative IPC: 2.65359 (Simulation time: 0 hr 7 min 49 sec) 
Heartbeat CPU 0 instructions: 50000003 cycles: 18872362 heartbeat IPC: 2.63267 cumulative IPC: 2.64938 (Simulation time: 0 hr 9 min 48 sec) 

Warmup complete CPU 0 instructions: 50000003 cycles: 18872362 (Simulation time: 0 hr 9 min 48 sec) 

Heartbeat CPU 0 instructions: 60000000 cycles: 27215324 heartbeat IPC: 1.19861 cumulative IPC: 1.19861 (Simulation time: 0 hr 11 min 44 sec) 
Heartbeat CPU 0 instructions: 70000000 cycles: 35238340 heartbeat IPC: 1.24641 cumulative IPC: 1.22205 (Simulation time: 0 hr 14 min 0 sec) 
Heartbeat CPU 0 instructions: 80000001 cycles: 44542308 heartbeat IPC: 1.07481 cumulative IPC: 1.16868 (Simulation time: 0 hr 15 min 47 sec) 
Heartbeat CPU 0 instructions: 90000001 cycles: 52125231 heartbeat IPC: 1.31875 cumulative IPC: 1.2029 (Simulation time: 0 hr 17 min 26 sec) 
Heartbeat CPU 0 instructions: 100000001 cycles: 60263742 heartbeat IPC: 1.22873 cumulative IPC: 1.20798 (Simulation time: 0 hr 19 min 9 sec) 
Finished CPU 0 instructions: 50000002 cycles: 41391381 cumulative IPC: 1.20798 (Simulation time: 0 hr 19 min 9 sec) 

ChampSim completed all CPUs

Region of Interest Statistics

CPU 0 cumulative IPC: 1.20798 instructions: 50000002 cycles: 41391381

SHEET
IPC : 1.20798

L1D TOTAL     ACCESS:   20639440  HIT:   19010711  MISS:    1628729
L1D LOAD      ACCESS:    8134947  HIT:    7335987  MISS:     798960
L1D RFO       ACCESS:    4827888  HIT:    4719022  MISS:     108866
L1D PREFETCH  ACCESS:    7676605  HIT:    6955702  MISS:     720903
L1D WRITEBACK ACCESS:          0  HIT:          0  MISS:          0
L1D PREFETCH  REQUESTED:    8204810  ISSUED:    8035824  USEFUL:     200649  USELESS:     520259
L1D AVERAGE MISS LATENCY: 32.9321 cycles
L1D

SHEET
L1D-total_access : 20639440
L1D-total_hit : 19010711
L1D-total_miss : 1628729
L1D-load_access : 8134947
L1D-load_hit : 7335987
L1D-load_miss : 798960
L1D-rfo_access : 4827888
L1D-rfo_hit : 4719022
L1D-rfo_miss : 108866
L1D-prefetch_access : 7676605
L1D-prefetch_hit : 6955702
L1D-prefetch_miss : 720903
L1D-writeback_access : 0
L1D-writeback_hit : 0
L1D-writeback_miss : 0
L1D-prefetch_requested : 8204810
L1D-prefetch_issued : 8035824
L1D-prefetch_useful : 200649
L1D-prefetch_useless : 520259
L1D-Avg_miss_latency : 32.9321

L1I TOTAL     ACCESS:   16529434  HIT:   14412487  MISS:    2116947
L1I LOAD      ACCESS:    9726567  HIT:    9355683  MISS:     370884
L1I RFO       ACCESS:          0  HIT:          0  MISS:          0
L1I PREFETCH  ACCESS:    6802867  HIT:    5056804  MISS:    1746063
L1I WRITEBACK ACCESS:          0  HIT:          0  MISS:          0
L1I PREFETCH  REQUESTED:    7474996  ISSUED:    7336527  USEFUL:     909398  USELESS:     836686
L1I AVERAGE MISS LATENCY: 16.2279 cycles
L1I

SHEET
L1I-total_access : 16529434
L1I-total_hit : 14412487
L1I-total_miss : 2116947
L1I-load_access : 9726567
L1I-load_hit : 9355683
L1I-load_miss : 370884
L1I-rfo_access : 0
L1I-rfo_hit : 0
L1I-rfo_miss : 0
L1I-prefetch_access : 6802867
L1I-prefetch_hit : 5056804
L1I-prefetch_miss : 1746063
L1I-writeback_access : 0
L1I-writeback_hit : 0
L1I-writeback_miss : 0
L1I-prefetch_requested : 7474996
L1I-prefetch_issued : 7336527
L1I-prefetch_useful : 909398
L1I-prefetch_useless : 836686
L1I-Avg_miss_latency : 16.2279

L2C TOTAL     ACCESS:    5150488  HIT:    4696081  MISS:     454407
L2C LOAD      ACCESS:    1067948  HIT:     896018  MISS:     171930
L2C RFO       ACCESS:     103610  HIT:      18213  MISS:      85397
L2C PREFETCH  ACCESS:    3796943  HIT:    3600318  MISS:     196625
L2C WRITEBACK ACCESS:     181987  HIT:     181532  MISS:        455
L2C PREFETCH  REQUESTED:    4038440  ISSUED:    4016562  USEFUL:      20588  USELESS:     176790
L2C AVERAGE MISS LATENCY: 77.1918 cycles
L2C

SHEET
L2C-total_access : 5150488
L2C-total_hit : 4696081
L2C-total_miss : 454407
L2C-load_access : 1067948
L2C-load_hit : 896018
L2C-load_miss : 171930
L2C-rfo_access : 103610
L2C-rfo_hit : 18213
L2C-rfo_miss : 85397
L2C-prefetch_access : 3796943
L2C-prefetch_hit : 3600318
L2C-prefetch_miss : 196625
L2C-writeback_access : 181987
L2C-writeback_hit : 181532
L2C-writeback_miss : 455
L2C-prefetch_requested : 4038440
L2C-prefetch_issued : 4016562
L2C-prefetch_useful : 20588
L2C-prefetch_useless : 176790
L2C-Avg_miss_latency : 77.1918

LLC TOTAL     ACCESS:    1642359  HIT:    1456578  MISS:     185781
LLC LOAD      ACCESS:     171828  HIT:     148096  MISS:      23732
LLC RFO       ACCESS:      85392  HIT:      16170  MISS:      69222
LLC PREFETCH  ACCESS:    1249002  HIT:    1156527  MISS:      92475
LLC WRITEBACK ACCESS:     136137  HIT:     135785  MISS:        352
LLC PREFETCH  REQUESTED:          0  ISSUED:          0  USEFUL:      25625  USELESS:      74037
LLC AVERAGE MISS LATENCY: 167.375 cycles
LLC

SHEET
LLC-total_access : 1642359
LLC-total_hit : 1456578
LLC-total_miss : 185781
LLC-load_access : 171828
LLC-load_hit : 148096
LLC-load_miss : 23732
LLC-rfo_access : 85392
LLC-rfo_hit : 16170
LLC-rfo_miss : 69222
LLC-prefetch_access : 1249002
LLC-prefetch_hit : 1156527
LLC-prefetch_miss : 92475
LLC-writeback_access : 136137
LLC-writeback_hit : 135785
LLC-writeback_miss : 352
LLC-prefetch_requested : 0
LLC-prefetch_issued : 0
LLC-prefetch_useful : 25625
LLC-prefetch_useless : 74037
LLC-Avg_miss_latency : 167.375

Major fault: 0 Minor fault: 5303



Printing Logs
statHeadFound: 740259
statHeadMissing: 794662
statStreamBufferHit: 12524373
statPrefetchEntryFound: 5413557
statCompactorMatch: 12479401
statStreamTrackerLookup: 14059294
statRecord: 1579893
statGetPointer: 1534921
statEnqueuePrefetch: 16343296
statPrefetchQueueIsFull: 15199
StreamBufferHitRate: 0.890825
Regions' size: 6217
next_region_correct: 1009546
next_region_wrong: 564112
next_region_correct_prediction: 0.641528
statStreamBufferLookups: 1012269168
statL1iLookups: 130746368
statCompactorLookups: 506134584
morteza: start

SHEET
mana_table_access_counter : 7008631
hobp_table_access_counter : 17888000
sab_access_counter : 17937930
srq_access_counter : 13314115

morteza: end
CPU 0 L1D next line prefetcher final stats

DRAM Statistics
 CHANNEL 0
 RQ ROW_BUFFER_HIT:      52487  ROW_BUFFER_MISS:     132927
 DBUS_CONGESTED:      97945
 WQ ROW_BUFFER_HIT:      24868  ROW_BUFFER_MISS:      65620  FULL:          0

 AVG_CONGESTED_CYCLE: 6

CPU 0 Branch Prediction Accuracy: 98.6482% MPKI: 3.1551 Average ROB Occupancy at Mispredict: 90.3483

Branch types
NOT_BRANCH: 38329598 76.6592%
BRANCH_DIRECT_JUMP: 510116 1.02023%
BRANCH_INDIRECT: 225730 0.45146%
BRANCH_CONDITIONAL: 8366762 16.7335%
BRANCH_DIRECT_CALL: 600748 1.2015%
BRANCH_INDIRECT_CALL: 682990 1.36598%
BRANCH_RETURN: 1283974 2.56795%
BRANCH_OTHER: 0 0%

