Initialize SIGNATURE TABLE
ST_SET: 1
ST_WAY: 256
ST_TAG_BIT: 16
ST_TAG_MASK: ffff

Initialize PATTERN TABLE
PT_SET: 512
PT_WAY: 4
SIG_DELTA_BIT: 7
C_SIG_BIT: 4
C_DELTA_BIT: 4

Initialize PREFETCH FILTER
FILTER_SET: 1024
MANA initialize 
tds: 2 tdm: 2
size MANA SINGLE: 15.5 KB
size MANA NULTIPLE: 0 KB
size HOBPT: 0.703125 KB
size SRQ: 0.14502 KB
size SABs: 0.290039 KB
size prefetch queue: 0.453125 KB
total: 17.0913 KB

*** ChampSim Multicore Out-of-Order Simulator ***

Warmup Instructions: 50000000
Simulation Instructions: 50000000
Number of CPUs: 1
LLC sets: 2048
LLC ways: 16
Off-chip DRAM Size: 4096 MB Channels: 1 Width: 64-bit Data Rate: 3200 MT/s

CPU 0 runs /home/mbaradaran/ChampSim/dpc3_traces/client_002.champsimtrace.xz
CPU 0 L1D next line prefetcher
Heartbeat CPU 0 instructions: 10000000 cycles: 3406402 heartbeat IPC: 2.93565 cumulative IPC: 2.93565 (Simulation time: 0 hr 1 min 38 sec) 
Heartbeat CPU 0 instructions: 20000002 cycles: 6863722 heartbeat IPC: 2.89241 cumulative IPC: 2.91387 (Simulation time: 0 hr 3 min 26 sec) 
Heartbeat CPU 0 instructions: 30000001 cycles: 10298276 heartbeat IPC: 2.91159 cumulative IPC: 2.91311 (Simulation time: 0 hr 5 min 18 sec) 
Heartbeat CPU 0 instructions: 40000002 cycles: 13732767 heartbeat IPC: 2.91164 cumulative IPC: 2.91274 (Simulation time: 0 hr 7 min 3 sec) 
Heartbeat CPU 0 instructions: 50000002 cycles: 17175241 heartbeat IPC: 2.90489 cumulative IPC: 2.91117 (Simulation time: 0 hr 8 min 45 sec) 

Warmup complete CPU 0 instructions: 50000002 cycles: 17175241 (Simulation time: 0 hr 8 min 45 sec) 

Heartbeat CPU 0 instructions: 60000002 cycles: 23634825 heartbeat IPC: 1.54809 cumulative IPC: 1.54809 (Simulation time: 0 hr 10 min 12 sec) 
Heartbeat CPU 0 instructions: 70000001 cycles: 30162183 heartbeat IPC: 1.53201 cumulative IPC: 1.54001 (Simulation time: 0 hr 11 min 42 sec) 
Heartbeat CPU 0 instructions: 80000003 cycles: 36557943 heartbeat IPC: 1.56354 cumulative IPC: 1.54777 (Simulation time: 0 hr 13 min 13 sec) 
Heartbeat CPU 0 instructions: 90000000 cycles: 43530842 heartbeat IPC: 1.43412 cumulative IPC: 1.5177 (Simulation time: 0 hr 14 min 41 sec) 
Heartbeat CPU 0 instructions: 100000003 cycles: 49985700 heartbeat IPC: 1.54922 cumulative IPC: 1.5239 (Simulation time: 0 hr 16 min 17 sec) 
Finished CPU 0 instructions: 50000001 cycles: 32810459 cumulative IPC: 1.5239 (Simulation time: 0 hr 16 min 17 sec) 

ChampSim completed all CPUs

Region of Interest Statistics

CPU 0 cumulative IPC: 1.5239 instructions: 50000001 cycles: 32810459

SHEET
IPC : 1.5239

L1D TOTAL     ACCESS:   19751236  HIT:   19411710  MISS:     339526
L1D LOAD      ACCESS:    6796722  HIT:    6680342  MISS:     116380
L1D RFO       ACCESS:    6430780  HIT:    6341236  MISS:      89544
L1D PREFETCH  ACCESS:    6523734  HIT:    6390132  MISS:     133602
L1D WRITEBACK ACCESS:          0  HIT:          0  MISS:          0
L1D PREFETCH  REQUESTED:    6808174  ISSUED:    6597901  USEFUL:      54568  USELESS:      79175
L1D AVERAGE MISS LATENCY: 49.0725 cycles
L1D

SHEET
L1D-total_access : 19751236
L1D-total_hit : 19411710
L1D-total_miss : 339526
L1D-load_access : 6796722
L1D-load_hit : 6680342
L1D-load_miss : 116380
L1D-rfo_access : 6430780
L1D-rfo_hit : 6341236
L1D-rfo_miss : 89544
L1D-prefetch_access : 6523734
L1D-prefetch_hit : 6390132
L1D-prefetch_miss : 133602
L1D-writeback_access : 0
L1D-writeback_hit : 0
L1D-writeback_miss : 0
L1D-prefetch_requested : 6808174
L1D-prefetch_issued : 6597901
L1D-prefetch_useful : 54568
L1D-prefetch_useless : 79175
L1D-Avg_miss_latency : 49.0725

L1I TOTAL     ACCESS:   19341282  HIT:   16529045  MISS:    2812237
L1I LOAD      ACCESS:    9592213  HIT:    9042202  MISS:     550011
L1I RFO       ACCESS:          0  HIT:          0  MISS:          0
L1I PREFETCH  ACCESS:    9749069  HIT:    7486843  MISS:    2262226
L1I WRITEBACK ACCESS:          0  HIT:          0  MISS:          0
L1I PREFETCH  REQUESTED:   10997559  ISSUED:   10701711  USEFUL:    1245934  USELESS:    1016300
L1I AVERAGE MISS LATENCY: 15.22 cycles
L1I

SHEET
L1I-total_access : 19341282
L1I-total_hit : 16529045
L1I-total_miss : 2812237
L1I-load_access : 9592213
L1I-load_hit : 9042202
L1I-load_miss : 550011
L1I-rfo_access : 0
L1I-rfo_hit : 0
L1I-rfo_miss : 0
L1I-prefetch_access : 9749069
L1I-prefetch_hit : 7486843
L1I-prefetch_miss : 2262226
L1I-writeback_access : 0
L1I-writeback_hit : 0
L1I-writeback_miss : 0
L1I-prefetch_requested : 10997559
L1I-prefetch_issued : 10701711
L1I-prefetch_useful : 1245934
L1I-prefetch_useless : 1016300
L1I-Avg_miss_latency : 15.22

L2C TOTAL     ACCESS:    4418971  HIT:    4176453  MISS:     242518
L2C LOAD      ACCESS:     539406  HIT:     475357  MISS:      64049
L2C RFO       ACCESS:      88534  HIT:      22536  MISS:      65998
L2C PREFETCH  ACCESS:    3665543  HIT:    3553682  MISS:     111861
L2C WRITEBACK ACCESS:     125488  HIT:     124878  MISS:        610
L2C PREFETCH  REQUESTED:    2962060  ISSUED:    2960798  USEFUL:      22619  USELESS:      88194
L2C AVERAGE MISS LATENCY: 63.9461 cycles
L2C

SHEET
L2C-total_access : 4418971
L2C-total_hit : 4176453
L2C-total_miss : 242518
L2C-load_access : 539406
L2C-load_hit : 475357
L2C-load_miss : 64049
L2C-rfo_access : 88534
L2C-rfo_hit : 22536
L2C-rfo_miss : 65998
L2C-prefetch_access : 3665543
L2C-prefetch_hit : 3553682
L2C-prefetch_miss : 111861
L2C-writeback_access : 125488
L2C-writeback_hit : 124878
L2C-writeback_miss : 610
L2C-prefetch_requested : 2962060
L2C-prefetch_issued : 2960798
L2C-prefetch_useful : 22619
L2C-prefetch_useless : 88194
L2C-Avg_miss_latency : 63.9461

LLC TOTAL     ACCESS:     902631  HIT:     838430  MISS:      64201
LLC LOAD      ACCESS:      64045  HIT:      57657  MISS:       6388
LLC RFO       ACCESS:      65998  HIT:      36571  MISS:      29427
LLC PREFETCH  ACCESS:     687678  HIT:     659546  MISS:      28132
LLC WRITEBACK ACCESS:      84910  HIT:      84656  MISS:        254
LLC PREFETCH  REQUESTED:          0  ISSUED:          0  USEFUL:       6273  USELESS:      20673
LLC AVERAGE MISS LATENCY: 176.055 cycles
LLC

SHEET
LLC-total_access : 902631
LLC-total_hit : 838430
LLC-total_miss : 64201
LLC-load_access : 64045
LLC-load_hit : 57657
LLC-load_miss : 6388
LLC-rfo_access : 65998
LLC-rfo_hit : 36571
LLC-rfo_miss : 29427
LLC-prefetch_access : 687678
LLC-prefetch_hit : 659546
LLC-prefetch_miss : 28132
LLC-writeback_access : 84910
LLC-writeback_hit : 84656
LLC-writeback_miss : 254
LLC-prefetch_requested : 0
LLC-prefetch_issued : 0
LLC-prefetch_useful : 6273
LLC-prefetch_useless : 20673
LLC-Avg_miss_latency : 176.055

Major fault: 0 Minor fault: 3091



Printing Logs
statHeadFound: 973979
statHeadMissing: 905540
statStreamBufferHit: 13347243
statPrefetchEntryFound: 7350627
statCompactorMatch: 12989247
statStreamTrackerLookup: 15226762
statRecord: 2237515
statGetPointer: 1879519
statEnqueuePrefetch: 21325138
statPrefetchQueueIsFull: 69962
StreamBufferHitRate: 0.876565
Regions' size: 5900
next_region_correct: 1469106
next_region_wrong: 762491
next_region_correct_prediction: 0.65832
statStreamBufferLookups: 1096326864
statL1iLookups: 170601104
statCompactorLookups: 548163432
morteza: start

SHEET
mana_table_access_counter : 9658086
hobp_table_access_counter : 23888692
sab_access_counter : 20697870
srq_access_counter : 15625630

morteza: end
CPU 0 L1D next line prefetcher final stats

DRAM Statistics
 CHANNEL 0
 RQ ROW_BUFFER_HIT:      22233  ROW_BUFFER_MISS:      41712
 DBUS_CONGESTED:      43155
 WQ ROW_BUFFER_HIT:       8934  ROW_BUFFER_MISS:      28123  FULL:          0

 AVG_CONGESTED_CYCLE: 6

CPU 0 Branch Prediction Accuracy: 99.2117% MPKI: 1.49752 Average ROB Occupancy at Mispredict: 78.5013

Branch types
NOT_BRANCH: 40501616 81.0032%
BRANCH_DIRECT_JUMP: 517397 1.03479%
BRANCH_INDIRECT: 112348 0.224696%
BRANCH_CONDITIONAL: 6698737 13.3975%
BRANCH_DIRECT_CALL: 960974 1.92195%
BRANCH_INDIRECT_CALL: 123707 0.247414%
BRANCH_RETURN: 1084929 2.16986%
BRANCH_OTHER: 0 0%

