Initialize SIGNATURE TABLE
ST_SET: 1
ST_WAY: 256
ST_TAG_BIT: 16
ST_TAG_MASK: ffff

Initialize PATTERN TABLE
PT_SET: 512
PT_WAY: 4
SIG_DELTA_BIT: 7
C_SIG_BIT: 4
C_DELTA_BIT: 4

Initialize PREFETCH FILTER
FILTER_SET: 1024
MANA initialize 
tds: 2 tdm: 2
size MANA SINGLE: 15.5 KB
size MANA NULTIPLE: 0 KB
size HOBPT: 0.703125 KB
size SRQ: 0.14502 KB
size SABs: 0.290039 KB
size prefetch queue: 0.453125 KB
total: 17.0913 KB

*** ChampSim Multicore Out-of-Order Simulator ***

Warmup Instructions: 50000000
Simulation Instructions: 50000000
Number of CPUs: 1
LLC sets: 2048
LLC ways: 16
Off-chip DRAM Size: 4096 MB Channels: 1 Width: 64-bit Data Rate: 3200 MT/s

CPU 0 runs /home/mbaradaran/ChampSim/dpc3_traces/client_006.champsimtrace.xz
CPU 0 L1D next line prefetcher
Heartbeat CPU 0 instructions: 10000003 cycles: 4268140 heartbeat IPC: 2.34294 cumulative IPC: 2.34294 (Simulation time: 0 hr 1 min 46 sec) 
Heartbeat CPU 0 instructions: 20000000 cycles: 8310027 heartbeat IPC: 2.47409 cumulative IPC: 2.40673 (Simulation time: 0 hr 3 min 41 sec) 
Heartbeat CPU 0 instructions: 30000003 cycles: 11377281 heartbeat IPC: 3.26025 cumulative IPC: 2.63683 (Simulation time: 0 hr 5 min 4 sec) 
Heartbeat CPU 0 instructions: 40000000 cycles: 14725029 heartbeat IPC: 2.98708 cumulative IPC: 2.71646 (Simulation time: 0 hr 6 min 41 sec) 
Heartbeat CPU 0 instructions: 50000003 cycles: 18830779 heartbeat IPC: 2.43561 cumulative IPC: 2.65523 (Simulation time: 0 hr 8 min 35 sec) 

Warmup complete CPU 0 instructions: 50000003 cycles: 18830779 (Simulation time: 0 hr 8 min 35 sec) 

Heartbeat CPU 0 instructions: 60000001 cycles: 26936936 heartbeat IPC: 1.23363 cumulative IPC: 1.23363 (Simulation time: 0 hr 10 min 0 sec) 
Heartbeat CPU 0 instructions: 70000003 cycles: 36761221 heartbeat IPC: 1.01789 cumulative IPC: 1.11542 (Simulation time: 0 hr 11 min 42 sec) 
Heartbeat CPU 0 instructions: 80000003 cycles: 45370076 heartbeat IPC: 1.16159 cumulative IPC: 1.1304 (Simulation time: 0 hr 13 min 9 sec) 
Heartbeat CPU 0 instructions: 90000003 cycles: 53279287 heartbeat IPC: 1.26435 cumulative IPC: 1.16115 (Simulation time: 0 hr 14 min 35 sec) 
Heartbeat CPU 0 instructions: 100000001 cycles: 61735564 heartbeat IPC: 1.18255 cumulative IPC: 1.16537 (Simulation time: 0 hr 16 min 3 sec) 
Finished CPU 0 instructions: 50000002 cycles: 42904786 cumulative IPC: 1.16537 (Simulation time: 0 hr 16 min 3 sec) 

ChampSim completed all CPUs

Region of Interest Statistics

CPU 0 cumulative IPC: 1.16537 instructions: 50000002 cycles: 42904786

SHEET
IPC : 1.16537

L1D TOTAL     ACCESS:   16681253  HIT:   15954438  MISS:     726815
L1D LOAD      ACCESS:    6408377  HIT:    6000983  MISS:     407394
L1D RFO       ACCESS:    4337377  HIT:    4294759  MISS:      42618
L1D PREFETCH  ACCESS:    5935499  HIT:    5658696  MISS:     276803
L1D WRITEBACK ACCESS:          0  HIT:          0  MISS:          0
L1D PREFETCH  REQUESTED:    6451323  ISSUED:    6270854  USEFUL:     115775  USELESS:     160901
L1D AVERAGE MISS LATENCY: 82.5553 cycles
L1D

SHEET
L1D-total_access : 16681253
L1D-total_hit : 15954438
L1D-total_miss : 726815
L1D-load_access : 6408377
L1D-load_hit : 6000983
L1D-load_miss : 407394
L1D-rfo_access : 4337377
L1D-rfo_hit : 4294759
L1D-rfo_miss : 42618
L1D-prefetch_access : 5935499
L1D-prefetch_hit : 5658696
L1D-prefetch_miss : 276803
L1D-writeback_access : 0
L1D-writeback_hit : 0
L1D-writeback_miss : 0
L1D-prefetch_requested : 6451323
L1D-prefetch_issued : 6270854
L1D-prefetch_useful : 115775
L1D-prefetch_useless : 160901
L1D-Avg_miss_latency : 82.5553

L1I TOTAL     ACCESS:   14032590  HIT:   12429240  MISS:    1603350
L1I LOAD      ACCESS:    8483280  HIT:    8350185  MISS:     133095
L1I RFO       ACCESS:          0  HIT:          0  MISS:          0
L1I PREFETCH  ACCESS:    5549310  HIT:    4079055  MISS:    1470255
L1I WRITEBACK ACCESS:          0  HIT:          0  MISS:          0
L1I PREFETCH  REQUESTED:    6041867  ISSUED:    5874953  USEFUL:    1090207  USELESS:     380087
L1I AVERAGE MISS LATENCY: 19.5027 cycles
L1I

SHEET
L1I-total_access : 14032590
L1I-total_hit : 12429240
L1I-total_miss : 1603350
L1I-load_access : 8483280
L1I-load_hit : 8350185
L1I-load_miss : 133095
L1I-rfo_access : 0
L1I-rfo_hit : 0
L1I-rfo_miss : 0
L1I-prefetch_access : 5549310
L1I-prefetch_hit : 4079055
L1I-prefetch_miss : 1470255
L1I-writeback_access : 0
L1I-writeback_hit : 0
L1I-writeback_miss : 0
L1I-prefetch_requested : 6041867
L1I-prefetch_issued : 5874953
L1I-prefetch_useful : 1090207
L1I-prefetch_useless : 380087
L1I-Avg_miss_latency : 19.5027

L2C TOTAL     ACCESS:    3204157  HIT:    2655847  MISS:     548310
L2C LOAD      ACCESS:     446113  HIT:     205553  MISS:     240560
L2C RFO       ACCESS:      42355  HIT:      12398  MISS:      29957
L2C PREFETCH  ACCESS:    2539712  HIT:    2262771  MISS:     276941
L2C WRITEBACK ACCESS:     175977  HIT:     175125  MISS:        852
L2C PREFETCH  REQUESTED:    3516414  ISSUED:    3491751  USEFUL:      14516  USELESS:     262587
L2C AVERAGE MISS LATENCY: 118.123 cycles
L2C

SHEET
L2C-total_access : 3204157
L2C-total_hit : 2655847
L2C-total_miss : 548310
L2C-load_access : 446113
L2C-load_hit : 205553
L2C-load_miss : 240560
L2C-rfo_access : 42355
L2C-rfo_hit : 12398
L2C-rfo_miss : 29957
L2C-prefetch_access : 2539712
L2C-prefetch_hit : 2262771
L2C-prefetch_miss : 276941
L2C-writeback_access : 175977
L2C-writeback_hit : 175125
L2C-writeback_miss : 852
L2C-prefetch_requested : 3516414
L2C-prefetch_issued : 3491751
L2C-prefetch_useful : 14516
L2C-prefetch_useless : 262587
L2C-Avg_miss_latency : 118.123

LLC TOTAL     ACCESS:    1428418  HIT:    1039196  MISS:     389222
LLC LOAD      ACCESS:     230603  HIT:     134566  MISS:      96037
LLC RFO       ACCESS:      29957  HIT:       5061  MISS:      24896
LLC PREFETCH  ACCESS:    1033726  HIT:     766033  MISS:     267693
LLC WRITEBACK ACCESS:     134132  HIT:     133536  MISS:        596
LLC PREFETCH  REQUESTED:          0  ISSUED:          0  USEFUL:      42060  USELESS:     228916
LLC AVERAGE MISS LATENCY: 198.224 cycles
LLC

SHEET
LLC-total_access : 1428418
LLC-total_hit : 1039196
LLC-total_miss : 389222
LLC-load_access : 230603
LLC-load_hit : 134566
LLC-load_miss : 96037
LLC-rfo_access : 29957
LLC-rfo_hit : 5061
LLC-rfo_miss : 24896
LLC-prefetch_access : 1033726
LLC-prefetch_hit : 766033
LLC-prefetch_miss : 267693
LLC-writeback_access : 134132
LLC-writeback_hit : 133536
LLC-writeback_miss : 596
LLC-prefetch_requested : 0
LLC-prefetch_issued : 0
LLC-prefetch_useful : 42060
LLC-prefetch_useless : 228916
LLC-Avg_miss_latency : 198.224

Major fault: 0 Minor fault: 10527



Printing Logs
statHeadFound: 386816
statHeadMissing: 621923
statStreamBufferHit: 10797819
statPrefetchEntryFound: 3236301
statCompactorMatch: 10811675
statStreamTrackerLookup: 11806558
statRecord: 994883
statGetPointer: 1008739
statEnqueuePrefetch: 11303993
statPrefetchQueueIsFull: 26242
StreamBufferHitRate: 0.914561
Regions' size: 2727
next_region_correct: 759559
next_region_wrong: 232579
next_region_correct_prediction: 0.765578
statStreamBufferLookups: 850072176
statL1iLookups: 90431944
statCompactorLookups: 425036088
morteza: start

SHEET
mana_table_access_counter : 4257408
hobp_table_access_counter : 11277038
sab_access_counter : 14034120
srq_access_counter : 10903268

morteza: end
CPU 0 L1D next line prefetcher final stats

DRAM Statistics
 CHANNEL 0
 RQ ROW_BUFFER_HIT:     102025  ROW_BUFFER_MISS:     286582
 DBUS_CONGESTED:     227225
 WQ ROW_BUFFER_HIT:      21617  ROW_BUFFER_MISS:      93196  FULL:          0

 AVG_CONGESTED_CYCLE: 5

CPU 0 Branch Prediction Accuracy: 98.1683% MPKI: 3.13642 Average ROB Occupancy at Mispredict: 84.6647

Branch types
NOT_BRANCH: 41438065 82.8761%
BRANCH_DIRECT_JUMP: 413829 0.827658%
BRANCH_INDIRECT: 47058 0.094116%
BRANCH_CONDITIONAL: 6843835 13.6877%
BRANCH_DIRECT_CALL: 536885 1.07377%
BRANCH_INDIRECT_CALL: 90642 0.181284%
BRANCH_RETURN: 629329 1.25866%
BRANCH_OTHER: 0 0%

