Initialize SIGNATURE TABLE
ST_SET: 1
ST_WAY: 256
ST_TAG_BIT: 16
ST_TAG_MASK: ffff

Initialize PATTERN TABLE
PT_SET: 512
PT_WAY: 4
SIG_DELTA_BIT: 7
C_SIG_BIT: 4
C_DELTA_BIT: 4

Initialize PREFETCH FILTER
FILTER_SET: 1024
MANA initialize 
tds: 2 tdm: 2
size MANA SINGLE: 15.5 KB
size MANA NULTIPLE: 0 KB
size HOBPT: 0.703125 KB
size SRQ: 0.14502 KB
size SABs: 0.290039 KB
size prefetch queue: 0.453125 KB
total: 17.0913 KB

*** ChampSim Multicore Out-of-Order Simulator ***

Warmup Instructions: 50000000
Simulation Instructions: 50000000
Number of CPUs: 1
LLC sets: 2048
LLC ways: 16
Off-chip DRAM Size: 4096 MB Channels: 1 Width: 64-bit Data Rate: 3200 MT/s

CPU 0 runs /home/mbaradaran/ChampSim/dpc3_traces/client_003.champsimtrace.xz
CPU 0 L1D next line prefetcher
Heartbeat CPU 0 instructions: 10000000 cycles: 3479476 heartbeat IPC: 2.874 cumulative IPC: 2.874 (Simulation time: 0 hr 1 min 40 sec) 
Heartbeat CPU 0 instructions: 20000002 cycles: 6935452 heartbeat IPC: 2.89354 cumulative IPC: 2.88373 (Simulation time: 0 hr 3 min 33 sec) 
Heartbeat CPU 0 instructions: 30000003 cycles: 10497069 heartbeat IPC: 2.80771 cumulative IPC: 2.85794 (Simulation time: 0 hr 5 min 23 sec) 
Heartbeat CPU 0 instructions: 40000001 cycles: 14114120 heartbeat IPC: 2.76468 cumulative IPC: 2.83404 (Simulation time: 0 hr 7 min 26 sec) 
Heartbeat CPU 0 instructions: 50000003 cycles: 17659918 heartbeat IPC: 2.82024 cumulative IPC: 2.83127 (Simulation time: 0 hr 9 min 22 sec) 

Warmup complete CPU 0 instructions: 50000003 cycles: 17659918 (Simulation time: 0 hr 9 min 22 sec) 

Heartbeat CPU 0 instructions: 60000002 cycles: 24389934 heartbeat IPC: 1.48588 cumulative IPC: 1.48588 (Simulation time: 0 hr 10 min 54 sec) 
Heartbeat CPU 0 instructions: 70000001 cycles: 30848790 heartbeat IPC: 1.54826 cumulative IPC: 1.51643 (Simulation time: 0 hr 12 min 35 sec) 
Heartbeat CPU 0 instructions: 80000001 cycles: 38214240 heartbeat IPC: 1.35769 cumulative IPC: 1.45955 (Simulation time: 0 hr 14 min 7 sec) 
Heartbeat CPU 0 instructions: 90000000 cycles: 47196233 heartbeat IPC: 1.11334 cumulative IPC: 1.35426 (Simulation time: 0 hr 15 min 27 sec) 
Heartbeat CPU 0 instructions: 100000003 cycles: 58145282 heartbeat IPC: 0.913322 cumulative IPC: 1.23501 (Simulation time: 0 hr 17 min 3 sec) 
Finished CPU 0 instructions: 50000000 cycles: 40485364 cumulative IPC: 1.23501 (Simulation time: 0 hr 17 min 3 sec) 

ChampSim completed all CPUs

Region of Interest Statistics

CPU 0 cumulative IPC: 1.23501 instructions: 50000000 cycles: 40485364

SHEET
IPC : 1.23501

L1D TOTAL     ACCESS:   18010345  HIT:   17514135  MISS:     496210
L1D LOAD      ACCESS:    6217682  HIT:    6093416  MISS:     124266
L1D RFO       ACCESS:    5959191  HIT:    5725113  MISS:     234078
L1D PREFETCH  ACCESS:    5833472  HIT:    5695606  MISS:     137866
L1D WRITEBACK ACCESS:          0  HIT:          0  MISS:          0
L1D PREFETCH  REQUESTED:    6259135  ISSUED:    6114381  USEFUL:      69718  USELESS:      68195
L1D AVERAGE MISS LATENCY: 123.79 cycles
L1D

SHEET
L1D-total_access : 18010345
L1D-total_hit : 17514135
L1D-total_miss : 496210
L1D-load_access : 6217682
L1D-load_hit : 6093416
L1D-load_miss : 124266
L1D-rfo_access : 5959191
L1D-rfo_hit : 5725113
L1D-rfo_miss : 234078
L1D-prefetch_access : 5833472
L1D-prefetch_hit : 5695606
L1D-prefetch_miss : 137866
L1D-writeback_access : 0
L1D-writeback_hit : 0
L1D-writeback_miss : 0
L1D-prefetch_requested : 6259135
L1D-prefetch_issued : 6114381
L1D-prefetch_useful : 69718
L1D-prefetch_useless : 68195
L1D-Avg_miss_latency : 123.79

L1I TOTAL     ACCESS:   17274570  HIT:   14959611  MISS:    2314959
L1I LOAD      ACCESS:    9492504  HIT:    9091273  MISS:     401231
L1I RFO       ACCESS:          0  HIT:          0  MISS:          0
L1I PREFETCH  ACCESS:    7782066  HIT:    5868338  MISS:    1913728
L1I WRITEBACK ACCESS:          0  HIT:          0  MISS:          0
L1I PREFETCH  REQUESTED:    8684168  ISSUED:    8440710  USEFUL:    1027963  USELESS:     885799
L1I AVERAGE MISS LATENCY: 16.1735 cycles
L1I

SHEET
L1I-total_access : 17274570
L1I-total_hit : 14959611
L1I-total_miss : 2314959
L1I-load_access : 9492504
L1I-load_hit : 9091273
L1I-load_miss : 401231
L1I-rfo_access : 0
L1I-rfo_hit : 0
L1I-rfo_miss : 0
L1I-prefetch_access : 7782066
L1I-prefetch_hit : 5868338
L1I-prefetch_miss : 1913728
L1I-writeback_access : 0
L1I-writeback_hit : 0
L1I-writeback_miss : 0
L1I-prefetch_requested : 8684168
L1I-prefetch_issued : 8440710
L1I-prefetch_useful : 1027963
L1I-prefetch_useless : 885799
L1I-Avg_miss_latency : 16.1735

L2C TOTAL     ACCESS:    4026457  HIT:    3633005  MISS:     393452
L2C LOAD      ACCESS:     411364  HIT:     360152  MISS:      51212
L2C RFO       ACCESS:     232005  HIT:      25934  MISS:     206071
L2C PREFETCH  ACCESS:    3113787  HIT:    2978702  MISS:     135085
L2C WRITEBACK ACCESS:     269301  HIT:     268217  MISS:       1084
L2C PREFETCH  REQUESTED:    2690105  ISSUED:    2689199  USEFUL:      14914  USELESS:     118993
L2C AVERAGE MISS LATENCY: 168.208 cycles
L2C

SHEET
L2C-total_access : 4026457
L2C-total_hit : 3633005
L2C-total_miss : 393452
L2C-load_access : 411364
L2C-load_hit : 360152
L2C-load_miss : 51212
L2C-rfo_access : 232005
L2C-rfo_hit : 25934
L2C-rfo_miss : 206071
L2C-prefetch_access : 3113787
L2C-prefetch_hit : 2978702
L2C-prefetch_miss : 135085
L2C-writeback_access : 269301
L2C-writeback_hit : 268217
L2C-writeback_miss : 1084
L2C-prefetch_requested : 2690105
L2C-prefetch_issued : 2689199
L2C-prefetch_useful : 14914
L2C-prefetch_useless : 118993
L2C-Avg_miss_latency : 168.208

LLC TOTAL     ACCESS:    1227512  HIT:     935111  MISS:     292401
LLC LOAD      ACCESS:      51119  HIT:      35962  MISS:      15157
LLC RFO       ACCESS:     206064  HIT:      33100  MISS:     172964
LLC PREFETCH  ACCESS:     746086  HIT:     642230  MISS:     103856
LLC WRITEBACK ACCESS:     224243  HIT:     223819  MISS:        424
LLC PREFETCH  REQUESTED:          0  ISSUED:          0  USEFUL:      13127  USELESS:      89700
LLC AVERAGE MISS LATENCY: 232.323 cycles
LLC

SHEET
LLC-total_access : 1227512
LLC-total_hit : 935111
LLC-total_miss : 292401
LLC-load_access : 51119
LLC-load_hit : 35962
LLC-load_miss : 15157
LLC-rfo_access : 206064
LLC-rfo_hit : 33100
LLC-rfo_miss : 172964
LLC-prefetch_access : 746086
LLC-prefetch_hit : 642230
LLC-prefetch_miss : 103856
LLC-writeback_access : 224243
LLC-writeback_hit : 223819
LLC-writeback_miss : 424
LLC-prefetch_requested : 0
LLC-prefetch_issued : 0
LLC-prefetch_useful : 13127
LLC-prefetch_useless : 89700
LLC-Avg_miss_latency : 232.323

Major fault: 0 Minor fault: 5042



Printing Logs
statHeadFound: 963575
statHeadMissing: 1625612
statStreamBufferHit: 11419905
statPrefetchEntryFound: 7181068
statCompactorMatch: 11708667
statStreamTrackerLookup: 14009092
statRecord: 2300425
statGetPointer: 2589187
statEnqueuePrefetch: 20067627
statPrefetchQueueIsFull: 51028
StreamBufferHitRate: 0.815178
Regions' size: 8259
next_region_correct: 1546607
next_region_wrong: 745541
next_region_correct_prediction: 0.674741
statStreamBufferLookups: 1008654624
statL1iLookups: 160541016
statCompactorLookups: 504327312
morteza: start

SHEET
mana_table_access_counter : 9532503
hobp_table_access_counter : 26790507
sab_access_counter : 18600973
srq_access_counter : 14746522

morteza: end
CPU 0 L1D next line prefetcher final stats

DRAM Statistics
 CHANNEL 0
 RQ ROW_BUFFER_HIT:     100859  ROW_BUFFER_MISS:     191113
 DBUS_CONGESTED:     262368
 WQ ROW_BUFFER_HIT:      58205  ROW_BUFFER_MISS:     122273  FULL:          0

 AVG_CONGESTED_CYCLE: 6

CPU 0 Branch Prediction Accuracy: 98.6631% MPKI: 2.66884 Average ROB Occupancy at Mispredict: 60.9939

Branch types
NOT_BRANCH: 40018628 80.0373%
BRANCH_DIRECT_JUMP: 370859 0.741718%
BRANCH_INDIRECT: 83252 0.166504%
BRANCH_CONDITIONAL: 7877414 15.7548%
BRANCH_DIRECT_CALL: 722308 1.44462%
BRANCH_INDIRECT_CALL: 101901 0.203802%
BRANCH_RETURN: 825352 1.6507%
BRANCH_OTHER: 0 0%

