Initialize SIGNATURE TABLE
ST_SET: 1
ST_WAY: 256
ST_TAG_BIT: 16
ST_TAG_MASK: ffff

Initialize PATTERN TABLE
PT_SET: 512
PT_WAY: 4
SIG_DELTA_BIT: 7
C_SIG_BIT: 4
C_DELTA_BIT: 4

Initialize PREFETCH FILTER
FILTER_SET: 1024
MANA initialize 
tds: 2 tdm: 2
size MANA SINGLE: 15.5 KB
size MANA NULTIPLE: 0 KB
size HOBPT: 0.703125 KB
size SRQ: 0.14502 KB
size SABs: 0.290039 KB
size prefetch queue: 0.453125 KB
total: 17.0913 KB

*** ChampSim Multicore Out-of-Order Simulator ***

Warmup Instructions: 50000000
Simulation Instructions: 50000000
Number of CPUs: 1
LLC sets: 2048
LLC ways: 16
Off-chip DRAM Size: 4096 MB Channels: 1 Width: 64-bit Data Rate: 3200 MT/s

CPU 0 runs /home/mbaradaran/ChampSim/dpc3_traces/client_007.champsimtrace.xz
CPU 0 L1D next line prefetcher
Heartbeat CPU 0 instructions: 10000001 cycles: 3644818 heartbeat IPC: 2.74362 cumulative IPC: 2.74362 (Simulation time: 0 hr 1 min 40 sec) 
Heartbeat CPU 0 instructions: 20000003 cycles: 7039111 heartbeat IPC: 2.94612 cumulative IPC: 2.84127 (Simulation time: 0 hr 3 min 21 sec) 
Heartbeat CPU 0 instructions: 30000000 cycles: 10913669 heartbeat IPC: 2.58094 cumulative IPC: 2.74885 (Simulation time: 0 hr 5 min 17 sec) 
Heartbeat CPU 0 instructions: 40000003 cycles: 15074107 heartbeat IPC: 2.40359 cumulative IPC: 2.65356 (Simulation time: 0 hr 7 min 3 sec) 
Heartbeat CPU 0 instructions: 50000002 cycles: 18480700 heartbeat IPC: 2.93548 cumulative IPC: 2.70553 (Simulation time: 0 hr 8 min 49 sec) 

Warmup complete CPU 0 instructions: 50000002 cycles: 18480700 (Simulation time: 0 hr 8 min 49 sec) 

Heartbeat CPU 0 instructions: 60000003 cycles: 25583186 heartbeat IPC: 1.40796 cumulative IPC: 1.40796 (Simulation time: 0 hr 10 min 41 sec) 
Heartbeat CPU 0 instructions: 70000003 cycles: 34569410 heartbeat IPC: 1.11281 cumulative IPC: 1.24311 (Simulation time: 0 hr 12 min 35 sec) 
Heartbeat CPU 0 instructions: 80000002 cycles: 39984757 heartbeat IPC: 1.8466 cumulative IPC: 1.39509 (Simulation time: 0 hr 14 min 1 sec) 
Heartbeat CPU 0 instructions: 90000002 cycles: 47875581 heartbeat IPC: 1.26729 cumulative IPC: 1.36078 (Simulation time: 0 hr 15 min 49 sec) 
Heartbeat CPU 0 instructions: 100000002 cycles: 56953000 heartbeat IPC: 1.10163 cumulative IPC: 1.29964 (Simulation time: 0 hr 17 min 32 sec) 
Finished CPU 0 instructions: 50000000 cycles: 38472300 cumulative IPC: 1.29964 (Simulation time: 0 hr 17 min 32 sec) 

ChampSim completed all CPUs

Region of Interest Statistics

CPU 0 cumulative IPC: 1.29964 instructions: 50000000 cycles: 38472300

SHEET
IPC : 1.29964

L1D TOTAL     ACCESS:   21393576  HIT:   20223953  MISS:    1169623
L1D LOAD      ACCESS:    8464940  HIT:    7926779  MISS:     538161
L1D RFO       ACCESS:    4873170  HIT:    4781925  MISS:      91245
L1D PREFETCH  ACCESS:    8055466  HIT:    7515249  MISS:     540217
L1D WRITEBACK ACCESS:          0  HIT:          0  MISS:          0
L1D PREFETCH  REQUESTED:    8518468  ISSUED:    8276529  USEFUL:     159357  USELESS:     380874
L1D AVERAGE MISS LATENCY: 34.6924 cycles
L1D

SHEET
L1D-total_access : 21393576
L1D-total_hit : 20223953
L1D-total_miss : 1169623
L1D-load_access : 8464940
L1D-load_hit : 7926779
L1D-load_miss : 538161
L1D-rfo_access : 4873170
L1D-rfo_hit : 4781925
L1D-rfo_miss : 91245
L1D-prefetch_access : 8055466
L1D-prefetch_hit : 7515249
L1D-prefetch_miss : 540217
L1D-writeback_access : 0
L1D-writeback_hit : 0
L1D-writeback_miss : 0
L1D-prefetch_requested : 8518468
L1D-prefetch_issued : 8276529
L1D-prefetch_useful : 159357
L1D-prefetch_useless : 380874
L1D-Avg_miss_latency : 34.6924

L1I TOTAL     ACCESS:   15016392  HIT:   13260731  MISS:    1755661
L1I LOAD      ACCESS:    9081455  HIT:    8830502  MISS:     250953
L1I RFO       ACCESS:          0  HIT:          0  MISS:          0
L1I PREFETCH  ACCESS:    5934937  HIT:    4430229  MISS:    1504708
L1I WRITEBACK ACCESS:          0  HIT:          0  MISS:          0
L1I PREFETCH  REQUESTED:    6471242  ISSUED:    6357086  USEFUL:     924604  USELESS:     580106
L1I AVERAGE MISS LATENCY: 15.5604 cycles
L1I

SHEET
L1I-total_access : 15016392
L1I-total_hit : 13260731
L1I-total_miss : 1755661
L1I-load_access : 9081455
L1I-load_hit : 8830502
L1I-load_miss : 250953
L1I-rfo_access : 0
L1I-rfo_hit : 0
L1I-rfo_miss : 0
L1I-prefetch_access : 5934937
L1I-prefetch_hit : 4430229
L1I-prefetch_miss : 1504708
L1I-writeback_access : 0
L1I-writeback_hit : 0
L1I-writeback_miss : 0
L1I-prefetch_requested : 6471242
L1I-prefetch_issued : 6357086
L1I-prefetch_useful : 924604
L1I-prefetch_useless : 580106
L1I-Avg_miss_latency : 15.5604

L2C TOTAL     ACCESS:    4096475  HIT:    3887942  MISS:     208533
L2C LOAD      ACCESS:     711672  HIT:     641288  MISS:      70384
L2C RFO       ACCESS:      89551  HIT:      47935  MISS:      41616
L2C PREFETCH  ACCESS:    2967469  HIT:    2871112  MISS:      96357
L2C WRITEBACK ACCESS:     327783  HIT:     327607  MISS:        176
L2C PREFETCH  REQUESTED:    3226945  ISSUED:    3216904  USEFUL:      10032  USELESS:      85323
L2C AVERAGE MISS LATENCY: 125.941 cycles
L2C

SHEET
L2C-total_access : 4096475
L2C-total_hit : 3887942
L2C-total_miss : 208533
L2C-load_access : 711672
L2C-load_hit : 641288
L2C-load_miss : 70384
L2C-rfo_access : 89551
L2C-rfo_hit : 47935
L2C-rfo_miss : 41616
L2C-prefetch_access : 2967469
L2C-prefetch_hit : 2871112
L2C-prefetch_miss : 96357
L2C-writeback_access : 327783
L2C-writeback_hit : 327607
L2C-writeback_miss : 176
L2C-prefetch_requested : 3226945
L2C-prefetch_issued : 3216904
L2C-prefetch_useful : 10032
L2C-prefetch_useless : 85323
L2C-Avg_miss_latency : 125.941

LLC TOTAL     ACCESS:    1191092  HIT:    1021345  MISS:     169747
LLC LOAD      ACCESS:      70302  HIT:      34485  MISS:      35817
LLC RFO       ACCESS:      41616  HIT:       7095  MISS:      34521
LLC PREFETCH  ACCESS:    1004516  HIT:     905422  MISS:      99094
LLC WRITEBACK ACCESS:      74658  HIT:      74343  MISS:        315
LLC PREFETCH  REQUESTED:          0  ISSUED:          0  USEFUL:      18222  USELESS:      80893
LLC AVERAGE MISS LATENCY: 181.97 cycles
LLC

SHEET
LLC-total_access : 1191092
LLC-total_hit : 1021345
LLC-total_miss : 169747
LLC-load_access : 70302
LLC-load_hit : 34485
LLC-load_miss : 35817
LLC-rfo_access : 41616
LLC-rfo_hit : 7095
LLC-rfo_miss : 34521
LLC-prefetch_access : 1004516
LLC-prefetch_hit : 905422
LLC-prefetch_miss : 99094
LLC-writeback_access : 74658
LLC-writeback_hit : 74343
LLC-writeback_miss : 315
LLC-prefetch_requested : 0
LLC-prefetch_issued : 0
LLC-prefetch_useful : 18222
LLC-prefetch_useless : 80893
LLC-Avg_miss_latency : 181.97

Major fault: 0 Minor fault: 4405



Printing Logs
statHeadFound: 595765
statHeadMissing: 1423381
statStreamBufferHit: 11645518
statPrefetchEntryFound: 4373338
statCompactorMatch: 12591536
statStreamTrackerLookup: 13664664
statRecord: 1073128
statGetPointer: 2019146
statEnqueuePrefetch: 12856500
statPrefetchQueueIsFull: 32761
StreamBufferHitRate: 0.852236
Regions' size: 5015
next_region_correct: 671688
next_region_wrong: 396407
next_region_correct_prediction: 0.628865
statStreamBufferLookups: 983855808
statL1iLookups: 102852000
statCompactorLookups: 491927904
morteza: start

SHEET
mana_table_access_counter : 5479209
hobp_table_access_counter : 16775187
sab_access_counter : 16018856
srq_access_counter : 12352663

morteza: end
CPU 0 L1D next line prefetcher final stats

DRAM Statistics
 CHANNEL 0
 RQ ROW_BUFFER_HIT:      35895  ROW_BUFFER_MISS:     133535
 DBUS_CONGESTED:      93378
 WQ ROW_BUFFER_HIT:      12975  ROW_BUFFER_MISS:      45553  FULL:          0

 AVG_CONGESTED_CYCLE: 5

CPU 0 Branch Prediction Accuracy: 98.8607% MPKI: 1.8623 Average ROB Occupancy at Mispredict: 107.78

Branch types
NOT_BRANCH: 41826773 83.6535%
BRANCH_DIRECT_JUMP: 735330 1.47066%
BRANCH_INDIRECT: 269194 0.538388%
BRANCH_CONDITIONAL: 5957947 11.9159%
BRANCH_DIRECT_CALL: 368758 0.737516%
BRANCH_INDIRECT_CALL: 226975 0.45395%
BRANCH_RETURN: 614696 1.22939%
BRANCH_OTHER: 0 0%

