Initialize SIGNATURE TABLE
ST_SET: 1
ST_WAY: 256
ST_TAG_BIT: 16
ST_TAG_MASK: ffff

Initialize PATTERN TABLE
PT_SET: 512
PT_WAY: 4
SIG_DELTA_BIT: 7
C_SIG_BIT: 4
C_DELTA_BIT: 4

Initialize PREFETCH FILTER
FILTER_SET: 1024
MANA initialize 
tds: 2 tdm: 2
size MANA SINGLE: 15.5 KB
size MANA NULTIPLE: 0 KB
size HOBPT: 0.703125 KB
size SRQ: 0.14502 KB
size SABs: 0.290039 KB
size prefetch queue: 0.453125 KB
total: 17.0913 KB

*** ChampSim Multicore Out-of-Order Simulator ***

Warmup Instructions: 50000000
Simulation Instructions: 50000000
Number of CPUs: 1
LLC sets: 2048
LLC ways: 16
Off-chip DRAM Size: 4096 MB Channels: 1 Width: 64-bit Data Rate: 3200 MT/s

CPU 0 runs /home/mbaradaran/ChampSim/dpc3_traces/client_001.champsimtrace.xz
CPU 0 L1D next line prefetcher
Heartbeat CPU 0 instructions: 10000003 cycles: 3410913 heartbeat IPC: 2.93177 cumulative IPC: 2.93177 (Simulation time: 0 hr 1 min 30 sec) 
Heartbeat CPU 0 instructions: 20000001 cycles: 7120166 heartbeat IPC: 2.69596 cumulative IPC: 2.80892 (Simulation time: 0 hr 3 min 17 sec) 
Heartbeat CPU 0 instructions: 30000001 cycles: 10483901 heartbeat IPC: 2.97289 cumulative IPC: 2.86153 (Simulation time: 0 hr 5 min 3 sec) 
Heartbeat CPU 0 instructions: 40000003 cycles: 14354046 heartbeat IPC: 2.58388 cumulative IPC: 2.78667 (Simulation time: 0 hr 6 min 58 sec) 
Heartbeat CPU 0 instructions: 50000003 cycles: 17651988 heartbeat IPC: 3.03219 cumulative IPC: 2.83254 (Simulation time: 0 hr 8 min 42 sec) 

Warmup complete CPU 0 instructions: 50000003 cycles: 17651988 (Simulation time: 0 hr 8 min 42 sec) 

Heartbeat CPU 0 instructions: 60000000 cycles: 26849661 heartbeat IPC: 1.08723 cumulative IPC: 1.08723 (Simulation time: 0 hr 10 min 31 sec) 
Heartbeat CPU 0 instructions: 70000000 cycles: 33521451 heartbeat IPC: 1.49885 cumulative IPC: 1.26028 (Simulation time: 0 hr 12 min 2 sec) 
Heartbeat CPU 0 instructions: 80000002 cycles: 42932502 heartbeat IPC: 1.06258 cumulative IPC: 1.18668 (Simulation time: 0 hr 13 min 56 sec) 
Heartbeat CPU 0 instructions: 90000000 cycles: 49504145 heartbeat IPC: 1.52169 cumulative IPC: 1.2558 (Simulation time: 0 hr 15 min 21 sec) 
Heartbeat CPU 0 instructions: 100000002 cycles: 58441311 heartbeat IPC: 1.11892 cumulative IPC: 1.22581 (Simulation time: 0 hr 17 min 1 sec) 
Finished CPU 0 instructions: 50000000 cycles: 40789326 cumulative IPC: 1.22581 (Simulation time: 0 hr 17 min 1 sec) 

ChampSim completed all CPUs

Region of Interest Statistics

CPU 0 cumulative IPC: 1.22581 instructions: 50000000 cycles: 40789326

SHEET
IPC : 1.22581

L1D TOTAL     ACCESS:   21341465  HIT:   20504984  MISS:     836481
L1D LOAD      ACCESS:    8869713  HIT:    8474982  MISS:     394731
L1D RFO       ACCESS:    4043942  HIT:    3984952  MISS:      58990
L1D PREFETCH  ACCESS:    8427810  HIT:    8045050  MISS:     382760
L1D WRITEBACK ACCESS:          0  HIT:          0  MISS:          0
L1D PREFETCH  REQUESTED:    8916365  ISSUED:    8608619  USEFUL:     129704  USELESS:     253030
L1D AVERAGE MISS LATENCY: 47.7806 cycles
L1D

SHEET
L1D-total_access : 21341465
L1D-total_hit : 20504984
L1D-total_miss : 836481
L1D-load_access : 8869713
L1D-load_hit : 8474982
L1D-load_miss : 394731
L1D-rfo_access : 4043942
L1D-rfo_hit : 3984952
L1D-rfo_miss : 58990
L1D-prefetch_access : 8427810
L1D-prefetch_hit : 8045050
L1D-prefetch_miss : 382760
L1D-writeback_access : 0
L1D-writeback_hit : 0
L1D-writeback_miss : 0
L1D-prefetch_requested : 8916365
L1D-prefetch_issued : 8608619
L1D-prefetch_useful : 129704
L1D-prefetch_useless : 253030
L1D-Avg_miss_latency : 47.7806

L1I TOTAL     ACCESS:   14685185  HIT:   13559341  MISS:    1125844
L1I LOAD      ACCESS:    8950968  HIT:    8803390  MISS:     147578
L1I RFO       ACCESS:          0  HIT:          0  MISS:          0
L1I PREFETCH  ACCESS:    5734217  HIT:    4755951  MISS:     978266
L1I WRITEBACK ACCESS:          0  HIT:          0  MISS:          0
L1I PREFETCH  REQUESTED:    6264853  ISSUED:    6101206  USEFUL:     626195  USELESS:     352044
L1I AVERAGE MISS LATENCY: 16.7095 cycles
L1I

SHEET
L1I-total_access : 14685185
L1I-total_hit : 13559341
L1I-total_miss : 1125844
L1I-load_access : 8950968
L1I-load_hit : 8803390
L1I-load_miss : 147578
L1I-rfo_access : 0
L1I-rfo_hit : 0
L1I-rfo_miss : 0
L1I-prefetch_access : 5734217
L1I-prefetch_hit : 4755951
L1I-prefetch_miss : 978266
L1I-writeback_access : 0
L1I-writeback_hit : 0
L1I-writeback_miss : 0
L1I-prefetch_requested : 6264853
L1I-prefetch_issued : 6101206
L1I-prefetch_useful : 626195
L1I-prefetch_useless : 352044
L1I-Avg_miss_latency : 16.7095

L2C TOTAL     ACCESS:    2894827  HIT:    2588288  MISS:     306539
L2C LOAD      ACCESS:     497010  HIT:     381819  MISS:     115191
L2C RFO       ACCESS:      58228  HIT:      21480  MISS:      36748
L2C PREFETCH  ACCESS:    2149983  HIT:    1995613  MISS:     154370
L2C WRITEBACK ACCESS:     189606  HIT:     189376  MISS:        230
L2C PREFETCH  REQUESTED:    2252731  ISSUED:    2248689  USEFUL:      14491  USELESS:     139109
L2C AVERAGE MISS LATENCY: 104.661 cycles
L2C

SHEET
L2C-total_access : 2894827
L2C-total_hit : 2588288
L2C-total_miss : 306539
L2C-load_access : 497010
L2C-load_hit : 381819
L2C-load_miss : 115191
L2C-rfo_access : 58228
L2C-rfo_hit : 21480
L2C-rfo_miss : 36748
L2C-prefetch_access : 2149983
L2C-prefetch_hit : 1995613
L2C-prefetch_miss : 154370
L2C-writeback_access : 189606
L2C-writeback_hit : 189376
L2C-writeback_miss : 230
L2C-prefetch_requested : 2252731
L2C-prefetch_issued : 2248689
L2C-prefetch_useful : 14491
L2C-prefetch_useless : 139109
L2C-Avg_miss_latency : 104.661

LLC TOTAL     ACCESS:     859566  HIT:     663352  MISS:     196214
LLC LOAD      ACCESS:     114854  HIT:      71307  MISS:      43547
LLC RFO       ACCESS:      36748  HIT:       8648  MISS:      28100
LLC PREFETCH  ACCESS:     601906  HIT:     477984  MISS:     123922
LLC WRITEBACK ACCESS:     106058  HIT:     105413  MISS:        645
LLC PREFETCH  REQUESTED:          0  ISSUED:          0  USEFUL:      28568  USELESS:      97144
LLC AVERAGE MISS LATENCY: 183.054 cycles
LLC

SHEET
LLC-total_access : 859566
LLC-total_hit : 663352
LLC-total_miss : 196214
LLC-load_access : 114854
LLC-load_hit : 71307
LLC-load_miss : 43547
LLC-rfo_access : 36748
LLC-rfo_hit : 8648
LLC-rfo_miss : 28100
LLC-prefetch_access : 601906
LLC-prefetch_hit : 477984
LLC-prefetch_miss : 123922
LLC-writeback_access : 106058
LLC-writeback_hit : 105413
LLC-writeback_miss : 645
LLC-prefetch_requested : 0
LLC-prefetch_issued : 0
LLC-prefetch_useful : 28568
LLC-prefetch_useless : 97144
LLC-Avg_miss_latency : 183.054

Major fault: 0 Minor fault: 3433



Printing Logs
statHeadFound: 371813
statHeadMissing: 958773
statStreamBufferHit: 11070207
statPrefetchEntryFound: 3284431
statCompactorMatch: 11522032
statStreamTrackerLookup: 12400793
statRecord: 878761
statGetPointer: 1330586
statEnqueuePrefetch: 11607342
statPrefetchQueueIsFull: 3920
StreamBufferHitRate: 0.892702
Regions' size: 2143
next_region_correct: 633330
next_region_wrong: 243270
next_region_correct_prediction: 0.722485
statStreamBufferLookups: 892857096
statL1iLookups: 92858736
statCompactorLookups: 446428548
morteza: start

SHEET
mana_table_access_counter : 4167094
hobp_table_access_counter : 12125730
sab_access_counter : 14354638
srq_access_counter : 11249983

morteza: end
CPU 0 L1D next line prefetcher final stats

DRAM Statistics
 CHANNEL 0
 RQ ROW_BUFFER_HIT:      48260  ROW_BUFFER_MISS:     147300
 DBUS_CONGESTED:     114419
 WQ ROW_BUFFER_HIT:      15809  ROW_BUFFER_MISS:      64905  FULL:          0

 AVG_CONGESTED_CYCLE: 5

CPU 0 Branch Prediction Accuracy: 97.9037% MPKI: 3.63418 Average ROB Occupancy at Mispredict: 84.5397

Branch types
NOT_BRANCH: 41331370 82.6627%
BRANCH_DIRECT_JUMP: 455615 0.91123%
BRANCH_INDIRECT: 20390 0.04078%
BRANCH_CONDITIONAL: 6745373 13.4907%
BRANCH_DIRECT_CALL: 494532 0.989064%
BRANCH_INDIRECT_CALL: 228815 0.45763%
BRANCH_RETURN: 723559 1.44712%
BRANCH_OTHER: 0 0%

