Initialize SIGNATURE TABLE
ST_SET: 1
ST_WAY: 256
ST_TAG_BIT: 16
ST_TAG_MASK: ffff

Initialize PATTERN TABLE
PT_SET: 512
PT_WAY: 4
SIG_DELTA_BIT: 7
C_SIG_BIT: 4
C_DELTA_BIT: 4

Initialize PREFETCH FILTER
FILTER_SET: 1024
MANA initialize 
tds: 2 tdm: 2
size MANA SINGLE: 15.5 KB
size MANA NULTIPLE: 0 KB
size HOBPT: 0.703125 KB
size SRQ: 0.14502 KB
size SABs: 0.290039 KB
size prefetch queue: 0.453125 KB
total: 17.0913 KB

*** ChampSim Multicore Out-of-Order Simulator ***

Warmup Instructions: 50000000
Simulation Instructions: 50000000
Number of CPUs: 1
LLC sets: 2048
LLC ways: 16
Off-chip DRAM Size: 4096 MB Channels: 1 Width: 64-bit Data Rate: 3200 MT/s

CPU 0 runs /home/mbaradaran/ChampSim/dpc3_traces/client_004.champsimtrace.xz
CPU 0 L1D next line prefetcher
Heartbeat CPU 0 instructions: 10000000 cycles: 3595333 heartbeat IPC: 2.78138 cumulative IPC: 2.78138 (Simulation time: 0 hr 1 min 35 sec) 
Heartbeat CPU 0 instructions: 20000003 cycles: 7060827 heartbeat IPC: 2.88559 cumulative IPC: 2.83253 (Simulation time: 0 hr 3 min 18 sec) 
Heartbeat CPU 0 instructions: 30000000 cycles: 10655003 heartbeat IPC: 2.78228 cumulative IPC: 2.81558 (Simulation time: 0 hr 5 min 7 sec) 
Heartbeat CPU 0 instructions: 40000003 cycles: 14337930 heartbeat IPC: 2.71523 cumulative IPC: 2.7898 (Simulation time: 0 hr 7 min 3 sec) 
Heartbeat CPU 0 instructions: 50000001 cycles: 17859439 heartbeat IPC: 2.83969 cumulative IPC: 2.79964 (Simulation time: 0 hr 8 min 59 sec) 

Warmup complete CPU 0 instructions: 50000001 cycles: 17859439 (Simulation time: 0 hr 8 min 59 sec) 

Heartbeat CPU 0 instructions: 60000002 cycles: 26110996 heartbeat IPC: 1.21189 cumulative IPC: 1.21189 (Simulation time: 0 hr 10 min 33 sec) 
Heartbeat CPU 0 instructions: 70000001 cycles: 34363872 heartbeat IPC: 1.2117 cumulative IPC: 1.2118 (Simulation time: 0 hr 12 min 10 sec) 
Heartbeat CPU 0 instructions: 80000000 cycles: 43656626 heartbeat IPC: 1.07611 cumulative IPC: 1.16292 (Simulation time: 0 hr 13 min 43 sec) 
Heartbeat CPU 0 instructions: 90000000 cycles: 52157364 heartbeat IPC: 1.17637 cumulative IPC: 1.16625 (Simulation time: 0 hr 15 min 18 sec) 
Heartbeat CPU 0 instructions: 100000001 cycles: 60536148 heartbeat IPC: 1.19349 cumulative IPC: 1.1716 (Simulation time: 0 hr 16 min 52 sec) 
Finished CPU 0 instructions: 50000000 cycles: 42676709 cumulative IPC: 1.1716 (Simulation time: 0 hr 16 min 52 sec) 

ChampSim completed all CPUs

Region of Interest Statistics

CPU 0 cumulative IPC: 1.1716 instructions: 50000000 cycles: 42676709

SHEET
IPC : 1.1716

L1D TOTAL     ACCESS:   22152458  HIT:   21263361  MISS:     889097
L1D LOAD      ACCESS:    8813722  HIT:    8418347  MISS:     395375
L1D RFO       ACCESS:    4818247  HIT:    4696907  MISS:     121340
L1D PREFETCH  ACCESS:    8520489  HIT:    8148107  MISS:     372382
L1D WRITEBACK ACCESS:          0  HIT:          0  MISS:          0
L1D PREFETCH  REQUESTED:    8853643  ISSUED:    8694539  USEFUL:     133850  USELESS:     238540
L1D AVERAGE MISS LATENCY: 29.7611 cycles
L1D

SHEET
L1D-total_access : 22152458
L1D-total_hit : 21263361
L1D-total_miss : 889097
L1D-load_access : 8813722
L1D-load_hit : 8418347
L1D-load_miss : 395375
L1D-rfo_access : 4818247
L1D-rfo_hit : 4696907
L1D-rfo_miss : 121340
L1D-prefetch_access : 8520489
L1D-prefetch_hit : 8148107
L1D-prefetch_miss : 372382
L1D-writeback_access : 0
L1D-writeback_hit : 0
L1D-writeback_miss : 0
L1D-prefetch_requested : 8853643
L1D-prefetch_issued : 8694539
L1D-prefetch_useful : 133850
L1D-prefetch_useless : 238540
L1D-Avg_miss_latency : 29.7611

L1I TOTAL     ACCESS:   16760618  HIT:   14834942  MISS:    1925676
L1I LOAD      ACCESS:    9434534  HIT:    9088919  MISS:     345615
L1I RFO       ACCESS:          0  HIT:          0  MISS:          0
L1I PREFETCH  ACCESS:    7326084  HIT:    5746023  MISS:    1580061
L1I WRITEBACK ACCESS:          0  HIT:          0  MISS:          0
L1I PREFETCH  REQUESTED:    8041857  ISSUED:    7856579  USEFUL:     758152  USELESS:     821927
L1I AVERAGE MISS LATENCY: 18.5877 cycles
L1I

SHEET
L1I-total_access : 16760618
L1I-total_hit : 14834942
L1I-total_miss : 1925676
L1I-load_access : 9434534
L1I-load_hit : 9088919
L1I-load_miss : 345615
L1I-rfo_access : 0
L1I-rfo_hit : 0
L1I-rfo_miss : 0
L1I-prefetch_access : 7326084
L1I-prefetch_hit : 5746023
L1I-prefetch_miss : 1580061
L1I-writeback_access : 0
L1I-writeback_hit : 0
L1I-writeback_miss : 0
L1I-prefetch_requested : 8041857
L1I-prefetch_issued : 7856579
L1I-prefetch_useful : 758152
L1I-prefetch_useless : 821927
L1I-Avg_miss_latency : 18.5877

L2C TOTAL     ACCESS:    4062577  HIT:    3763696  MISS:     298881
L2C LOAD      ACCESS:     676831  HIT:     577665  MISS:      99166
L2C RFO       ACCESS:     117352  HIT:      44684  MISS:      72668
L2C PREFETCH  ACCESS:    3046321  HIT:    2920288  MISS:     126033
L2C WRITEBACK ACCESS:     222073  HIT:     221059  MISS:       1014
L2C PREFETCH  REQUESTED:    2860429  ISSUED:    2859466  USEFUL:      29034  USELESS:      95780
L2C AVERAGE MISS LATENCY: 75.5333 cycles
L2C

SHEET
L2C-total_access : 4062577
L2C-total_hit : 3763696
L2C-total_miss : 298881
L2C-load_access : 676831
L2C-load_hit : 577665
L2C-load_miss : 99166
L2C-rfo_access : 117352
L2C-rfo_hit : 44684
L2C-rfo_miss : 72668
L2C-prefetch_access : 3046321
L2C-prefetch_hit : 2920288
L2C-prefetch_miss : 126033
L2C-writeback_access : 222073
L2C-writeback_hit : 221059
L2C-writeback_miss : 1014
L2C-prefetch_requested : 2860429
L2C-prefetch_issued : 2859466
L2C-prefetch_useful : 29034
L2C-prefetch_useless : 95780
L2C-Avg_miss_latency : 75.5333

LLC TOTAL     ACCESS:     958502  HIT:     824043  MISS:     134459
LLC LOAD      ACCESS:      99137  HIT:      68549  MISS:      30588
LLC RFO       ACCESS:      72668  HIT:      41671  MISS:      30997
LLC PREFETCH  ACCESS:     684785  HIT:     612166  MISS:      72619
LLC WRITEBACK ACCESS:     101912  HIT:     101657  MISS:        255
LLC PREFETCH  REQUESTED:          0  ISSUED:          0  USEFUL:      27937  USELESS:      45643
LLC AVERAGE MISS LATENCY: 169.025 cycles
LLC

SHEET
LLC-total_access : 958502
LLC-total_hit : 824043
LLC-total_miss : 134459
LLC-load_access : 99137
LLC-load_hit : 68549
LLC-load_miss : 30588
LLC-rfo_access : 72668
LLC-rfo_hit : 41671
LLC-rfo_miss : 30997
LLC-prefetch_access : 684785
LLC-prefetch_hit : 612166
LLC-prefetch_miss : 72619
LLC-writeback_access : 101912
LLC-writeback_hit : 101657
LLC-writeback_miss : 255
LLC-prefetch_requested : 0
LLC-prefetch_issued : 0
LLC-prefetch_useful : 27937
LLC-prefetch_useless : 45643
LLC-Avg_miss_latency : 169.025

Major fault: 0 Minor fault: 3976



Printing Logs
statHeadFound: 813763
statHeadMissing: 1589743
statStreamBufferHit: 12059422
statPrefetchEntryFound: 5863770
statCompactorMatch: 13129420
statStreamTrackerLookup: 14462928
statRecord: 1333508
statGetPointer: 2403506
statEnqueuePrefetch: 16755626
statPrefetchQueueIsFull: 65245
StreamBufferHitRate: 0.833816
Regions' size: 11346
next_region_correct: 772559
next_region_wrong: 549585
next_region_correct_prediction: 0.584323
statStreamBufferLookups: 1041330816
statL1iLookups: 134045008
statCompactorLookups: 520665408
morteza: start

SHEET
mana_table_access_counter : 7262505
hobp_table_access_counter : 20877059
sab_access_counter : 17923192
srq_access_counter : 12989369

morteza: end
CPU 0 L1D next line prefetcher final stats

DRAM Statistics
 CHANNEL 0
 RQ ROW_BUFFER_HIT:      32004  ROW_BUFFER_MISS:     102185
 DBUS_CONGESTED:      58784
 WQ ROW_BUFFER_HIT:      10551  ROW_BUFFER_MISS:      34742  FULL:          0

 AVG_CONGESTED_CYCLE: 6

CPU 0 Branch Prediction Accuracy: 94.1242% MPKI: 11.6089 Average ROB Occupancy at Mispredict: 50.926

Branch types
NOT_BRANCH: 40121050 80.2421%
BRANCH_DIRECT_JUMP: 644555 1.28911%
BRANCH_INDIRECT: 201946 0.403892%
BRANCH_CONDITIONAL: 7003555 14.0071%
BRANCH_DIRECT_CALL: 564820 1.12964%
BRANCH_INDIRECT_CALL: 445012 0.890024%
BRANCH_RETURN: 1018716 2.03743%
BRANCH_OTHER: 0 0%

