Initialize SIGNATURE TABLE
ST_SET: 1
ST_WAY: 256
ST_TAG_BIT: 16
ST_TAG_MASK: ffff

Initialize PATTERN TABLE
PT_SET: 512
PT_WAY: 4
SIG_DELTA_BIT: 7
C_SIG_BIT: 4
C_DELTA_BIT: 4

Initialize PREFETCH FILTER
FILTER_SET: 1024
MANA initialize 
tds: 2 tdm: 2
size MANA SINGLE: 15.5 KB
size MANA NULTIPLE: 0 KB
size HOBPT: 0.703125 KB
size SRQ: 0.14502 KB
size SABs: 0.290039 KB
size prefetch queue: 0.453125 KB
total: 17.0913 KB

*** ChampSim Multicore Out-of-Order Simulator ***

Warmup Instructions: 50000000
Simulation Instructions: 50000000
Number of CPUs: 1
LLC sets: 2048
LLC ways: 16
Off-chip DRAM Size: 4096 MB Channels: 1 Width: 64-bit Data Rate: 3200 MT/s

CPU 0 runs /home/mbaradaran/ChampSim/dpc3_traces/server_010.champsimtrace.xz
CPU 0 L1D next line prefetcher
Heartbeat CPU 0 instructions: 10000000 cycles: 3208462 heartbeat IPC: 3.11676 cumulative IPC: 3.11676 (Simulation time: 0 hr 1 min 47 sec) 
Heartbeat CPU 0 instructions: 20000002 cycles: 6414140 heartbeat IPC: 3.11947 cumulative IPC: 3.11811 (Simulation time: 0 hr 3 min 39 sec) 
Heartbeat CPU 0 instructions: 30000001 cycles: 9621672 heartbeat IPC: 3.11766 cumulative IPC: 3.11796 (Simulation time: 0 hr 5 min 26 sec) 
Heartbeat CPU 0 instructions: 40000000 cycles: 12825308 heartbeat IPC: 3.12145 cumulative IPC: 3.11883 (Simulation time: 0 hr 7 min 9 sec) 
Heartbeat CPU 0 instructions: 50000003 cycles: 16035879 heartbeat IPC: 3.11471 cumulative IPC: 3.11801 (Simulation time: 0 hr 8 min 51 sec) 

Warmup complete CPU 0 instructions: 50000003 cycles: 16035879 (Simulation time: 0 hr 8 min 51 sec) 

Heartbeat CPU 0 instructions: 60000001 cycles: 23837075 heartbeat IPC: 1.28185 cumulative IPC: 1.28185 (Simulation time: 0 hr 10 min 26 sec) 
Heartbeat CPU 0 instructions: 70000000 cycles: 31835573 heartbeat IPC: 1.25023 cumulative IPC: 1.26585 (Simulation time: 0 hr 12 min 1 sec) 
Heartbeat CPU 0 instructions: 80000003 cycles: 39915072 heartbeat IPC: 1.2377 cumulative IPC: 1.25632 (Simulation time: 0 hr 13 min 34 sec) 
Heartbeat CPU 0 instructions: 90000002 cycles: 47671020 heartbeat IPC: 1.28933 cumulative IPC: 1.26442 (Simulation time: 0 hr 15 min 7 sec) 
Heartbeat CPU 0 instructions: 100000003 cycles: 68586733 heartbeat IPC: 0.47811 cumulative IPC: 0.951459 (Simulation time: 0 hr 17 min 59 sec) 
Finished CPU 0 instructions: 50000000 cycles: 52550854 cumulative IPC: 0.951459 (Simulation time: 0 hr 17 min 59 sec) 

ChampSim completed all CPUs

Region of Interest Statistics

CPU 0 cumulative IPC: 0.951459 instructions: 50000000 cycles: 52550854

SHEET
IPC : 0.951459

L1D TOTAL     ACCESS:   20202540  HIT:   16976600  MISS:    3225940
L1D LOAD      ACCESS:    7848598  HIT:    6257898  MISS:    1590700
L1D RFO       ACCESS:    4725372  HIT:    4630794  MISS:      94578
L1D PREFETCH  ACCESS:    7628570  HIT:    6087908  MISS:    1540662
L1D WRITEBACK ACCESS:          0  HIT:          0  MISS:          0
L1D PREFETCH  REQUESTED:    7883398  ISSUED:    7785581  USEFUL:     119858  USELESS:    1420775
L1D AVERAGE MISS LATENCY: 22.6941 cycles
L1D

SHEET
L1D-total_access : 20202540
L1D-total_hit : 16976600
L1D-total_miss : 3225940
L1D-load_access : 7848598
L1D-load_hit : 6257898
L1D-load_miss : 1590700
L1D-rfo_access : 4725372
L1D-rfo_hit : 4630794
L1D-rfo_miss : 94578
L1D-prefetch_access : 7628570
L1D-prefetch_hit : 6087908
L1D-prefetch_miss : 1540662
L1D-writeback_access : 0
L1D-writeback_hit : 0
L1D-writeback_miss : 0
L1D-prefetch_requested : 7883398
L1D-prefetch_issued : 7785581
L1D-prefetch_useful : 119858
L1D-prefetch_useless : 1420775
L1D-Avg_miss_latency : 22.6941

L1I TOTAL     ACCESS:   16778592  HIT:   13433588  MISS:    3345004
L1I LOAD      ACCESS:    9958173  HIT:    9498564  MISS:     459609
L1I RFO       ACCESS:          0  HIT:          0  MISS:          0
L1I PREFETCH  ACCESS:    6820419  HIT:    3935024  MISS:    2885395
L1I WRITEBACK ACCESS:          0  HIT:          0  MISS:          0
L1I PREFETCH  REQUESTED:    7633033  ISSUED:    7183941  USEFUL:    1604598  USELESS:    1280832
L1I AVERAGE MISS LATENCY: 22.5109 cycles
L1I

SHEET
L1I-total_access : 16778592
L1I-total_hit : 13433588
L1I-total_miss : 3345004
L1I-load_access : 9958173
L1I-load_hit : 9498564
L1I-load_miss : 459609
L1I-rfo_access : 0
L1I-rfo_hit : 0
L1I-rfo_miss : 0
L1I-prefetch_access : 6820419
L1I-prefetch_hit : 3935024
L1I-prefetch_miss : 2885395
L1I-writeback_access : 0
L1I-writeback_hit : 0
L1I-writeback_miss : 0
L1I-prefetch_requested : 7633033
L1I-prefetch_issued : 7183941
L1I-prefetch_useful : 1604598
L1I-prefetch_useless : 1280832
L1I-Avg_miss_latency : 22.5109

L2C TOTAL     ACCESS:    8549390  HIT:    7391817  MISS:    1157573
L2C LOAD      ACCESS:    1934985  HIT:    1588451  MISS:     346534
L2C RFO       ACCESS:      93429  HIT:      48665  MISS:      44764
L2C PREFETCH  ACCESS:    6255570  HIT:    5491086  MISS:     764484
L2C WRITEBACK ACCESS:     265406  HIT:     263615  MISS:       1791
L2C PREFETCH  REQUESTED:    8528512  ISSUED:    8517939  USEFUL:      77949  USELESS:     686556
L2C AVERAGE MISS LATENCY: 44.7803 cycles
L2C

SHEET
L2C-total_access : 8549390
L2C-total_hit : 7391817
L2C-total_miss : 1157573
L2C-load_access : 1934985
L2C-load_hit : 1588451
L2C-load_miss : 346534
L2C-rfo_access : 93429
L2C-rfo_hit : 48665
L2C-rfo_miss : 44764
L2C-prefetch_access : 6255570
L2C-prefetch_hit : 5491086
L2C-prefetch_miss : 764484
L2C-writeback_access : 265406
L2C-writeback_hit : 263615
L2C-writeback_miss : 1791
L2C-prefetch_requested : 8528512
L2C-prefetch_issued : 8517939
L2C-prefetch_useful : 77949
L2C-prefetch_useless : 686556
L2C-Avg_miss_latency : 44.7803

LLC TOTAL     ACCESS:    2903852  HIT:    2768252  MISS:     135600
LLC LOAD      ACCESS:     345776  HIT:     324328  MISS:      21448
LLC RFO       ACCESS:      44760  HIT:      36199  MISS:       8561
LLC PREFETCH  ACCESS:    2361400  HIT:    2256017  MISS:     105383
LLC WRITEBACK ACCESS:     151916  HIT:     151708  MISS:        208
LLC PREFETCH  REQUESTED:          0  ISSUED:          0  USEFUL:      12145  USELESS:      92886
LLC AVERAGE MISS LATENCY: 170.811 cycles
LLC

SHEET
LLC-total_access : 2903852
LLC-total_hit : 2768252
LLC-total_miss : 135600
LLC-load_access : 345776
LLC-load_hit : 324328
LLC-load_miss : 21448
LLC-rfo_access : 44760
LLC-rfo_hit : 36199
LLC-rfo_miss : 8561
LLC-prefetch_access : 2361400
LLC-prefetch_hit : 2256017
LLC-prefetch_miss : 105383
LLC-writeback_access : 151916
LLC-writeback_hit : 151708
LLC-writeback_miss : 208
LLC-prefetch_requested : 0
LLC-prefetch_issued : 0
LLC-prefetch_useful : 12145
LLC-prefetch_useless : 92886
LLC-Avg_miss_latency : 170.811

Major fault: 0 Minor fault: 5593



Printing Logs
statHeadFound: 495035
statHeadMissing: 1017074
statStreamBufferHit: 11443519
statPrefetchEntryFound: 4138569
statCompactorMatch: 11066756
statStreamTrackerLookup: 12955628
statRecord: 1888872
statGetPointer: 1512109
statEnqueuePrefetch: 14435919
statPrefetchQueueIsFull: 130143
StreamBufferHitRate: 0.883286
Regions' size: 3695
next_region_correct: 1569496
next_region_wrong: 315663
next_region_correct_prediction: 0.832554
statStreamBufferLookups: 932805216
statL1iLookups: 115487352
statCompactorLookups: 466402608
morteza: start

SHEET
mana_table_access_counter : 6157566
hobp_table_access_counter : 17872649
sab_access_counter : 15582088
srq_access_counter : 12891125

morteza: end
CPU 0 L1D next line prefetcher final stats

DRAM Statistics
 CHANNEL 0
 RQ ROW_BUFFER_HIT:      22102  ROW_BUFFER_MISS:     113283
 DBUS_CONGESTED:      59315
 WQ ROW_BUFFER_HIT:       9957  ROW_BUFFER_MISS:      43946  FULL:          0

 AVG_CONGESTED_CYCLE: 5

CPU 0 Branch Prediction Accuracy: 99.5528% MPKI: 0.89798 Average ROB Occupancy at Mispredict: 105.148

Branch types
NOT_BRANCH: 39958799 79.9176%
BRANCH_DIRECT_JUMP: 449946 0.899892%
BRANCH_INDIRECT: 140210 0.28042%
BRANCH_CONDITIONAL: 7679671 15.3593%
BRANCH_DIRECT_CALL: 701578 1.40316%
BRANCH_INDIRECT_CALL: 168971 0.337942%
BRANCH_RETURN: 900560 1.80112%
BRANCH_OTHER: 0 0%

