Initialize SIGNATURE TABLE
ST_SET: 1
ST_WAY: 256
ST_TAG_BIT: 16
ST_TAG_MASK: ffff

Initialize PATTERN TABLE
PT_SET: 512
PT_WAY: 4
SIG_DELTA_BIT: 7
C_SIG_BIT: 4
C_DELTA_BIT: 4

Initialize PREFETCH FILTER
FILTER_SET: 1024
MANA initialize 
tds: 2 tdm: 2
size MANA SINGLE: 15.5 KB
size MANA NULTIPLE: 0 KB
size HOBPT: 0.703125 KB
size SRQ: 0.14502 KB
size SABs: 0.290039 KB
size prefetch queue: 0.453125 KB
total: 17.0913 KB

*** ChampSim Multicore Out-of-Order Simulator ***

Warmup Instructions: 50000000
Simulation Instructions: 50000000
Number of CPUs: 1
LLC sets: 2048
LLC ways: 16
Off-chip DRAM Size: 4096 MB Channels: 1 Width: 64-bit Data Rate: 3200 MT/s

CPU 0 runs /home/mbaradaran/ChampSim/dpc3_traces/server_028.champsimtrace.xz
CPU 0 L1D next line prefetcher
Heartbeat CPU 0 instructions: 10000001 cycles: 3516769 heartbeat IPC: 2.84352 cumulative IPC: 2.84352 (Simulation time: 0 hr 2 min 1 sec) 
Heartbeat CPU 0 instructions: 20000002 cycles: 7034258 heartbeat IPC: 2.84294 cumulative IPC: 2.84323 (Simulation time: 0 hr 3 min 58 sec) 
Heartbeat CPU 0 instructions: 30000001 cycles: 10549890 heartbeat IPC: 2.84444 cumulative IPC: 2.84363 (Simulation time: 0 hr 5 min 50 sec) 
Heartbeat CPU 0 instructions: 40000002 cycles: 14071286 heartbeat IPC: 2.83978 cumulative IPC: 2.84267 (Simulation time: 0 hr 7 min 43 sec) 
Heartbeat CPU 0 instructions: 50000001 cycles: 17588779 heartbeat IPC: 2.84293 cumulative IPC: 2.84272 (Simulation time: 0 hr 9 min 31 sec) 

Warmup complete CPU 0 instructions: 50000001 cycles: 17588779 (Simulation time: 0 hr 9 min 31 sec) 

Heartbeat CPU 0 instructions: 60000000 cycles: 25630107 heartbeat IPC: 1.24358 cumulative IPC: 1.24358 (Simulation time: 0 hr 11 min 26 sec) 
Heartbeat CPU 0 instructions: 70000000 cycles: 33642808 heartbeat IPC: 1.24802 cumulative IPC: 1.24579 (Simulation time: 0 hr 13 min 17 sec) 
Heartbeat CPU 0 instructions: 80000000 cycles: 41662013 heartbeat IPC: 1.24701 cumulative IPC: 1.2462 (Simulation time: 0 hr 15 min 11 sec) 
*** Reached end of trace for Core: 0 Repeating trace: /home/mbaradaran/ChampSim/dpc3_traces/server_028.champsimtrace.xz
Heartbeat CPU 0 instructions: 90000000 cycles: 49660746 heartbeat IPC: 1.2502 cumulative IPC: 1.2472 (Simulation time: 0 hr 17 min 0 sec) 
Heartbeat CPU 0 instructions: 100000003 cycles: 57637469 heartbeat IPC: 1.25365 cumulative IPC: 1.24848 (Simulation time: 0 hr 18 min 47 sec) 
Finished CPU 0 instructions: 50000002 cycles: 40048690 cumulative IPC: 1.24848 (Simulation time: 0 hr 18 min 47 sec) 

ChampSim completed all CPUs

Region of Interest Statistics

CPU 0 cumulative IPC: 1.24848 instructions: 50000002 cycles: 40048690

SHEET
IPC : 1.24848

L1D TOTAL     ACCESS:   19690236  HIT:   17616066  MISS:    2074170
L1D LOAD      ACCESS:    7028882  HIT:    5981918  MISS:    1046964
L1D RFO       ACCESS:    6128740  HIT:    5844767  MISS:     283973
L1D PREFETCH  ACCESS:    6532614  HIT:    5789381  MISS:     743233
L1D WRITEBACK ACCESS:          0  HIT:          0  MISS:          0
L1D PREFETCH  REQUESTED:    7087493  ISSUED:    6992621  USEFUL:     176522  USELESS:     566712
L1D AVERAGE MISS LATENCY: 21.0926 cycles
L1D

SHEET
L1D-total_access : 19690236
L1D-total_hit : 17616066
L1D-total_miss : 2074170
L1D-load_access : 7028882
L1D-load_hit : 5981918
L1D-load_miss : 1046964
L1D-rfo_access : 6128740
L1D-rfo_hit : 5844767
L1D-rfo_miss : 283973
L1D-prefetch_access : 6532614
L1D-prefetch_hit : 5789381
L1D-prefetch_miss : 743233
L1D-writeback_access : 0
L1D-writeback_hit : 0
L1D-writeback_miss : 0
L1D-prefetch_requested : 7087493
L1D-prefetch_issued : 6992621
L1D-prefetch_useful : 176522
L1D-prefetch_useless : 566712
L1D-Avg_miss_latency : 21.0926

L1I TOTAL     ACCESS:   19414537  HIT:   13103522  MISS:    6311015
L1I LOAD      ACCESS:    9587712  HIT:    8525081  MISS:    1062631
L1I RFO       ACCESS:          0  HIT:          0  MISS:          0
L1I PREFETCH  ACCESS:    9826825  HIT:    4578441  MISS:    5248384
L1I WRITEBACK ACCESS:          0  HIT:          0  MISS:          0
L1I PREFETCH  REQUESTED:   11051450  ISSUED:   10781828  USEFUL:    2499117  USELESS:    2749260
L1I AVERAGE MISS LATENCY: 15.5445 cycles
L1I

SHEET
L1I-total_access : 19414537
L1I-total_hit : 13103522
L1I-total_miss : 6311015
L1I-load_access : 9587712
L1I-load_hit : 8525081
L1I-load_miss : 1062631
L1I-rfo_access : 0
L1I-rfo_hit : 0
L1I-rfo_miss : 0
L1I-prefetch_access : 9826825
L1I-prefetch_hit : 4578441
L1I-prefetch_miss : 5248384
L1I-writeback_access : 0
L1I-writeback_hit : 0
L1I-writeback_miss : 0
L1I-prefetch_requested : 11051450
L1I-prefetch_issued : 10781828
L1I-prefetch_useful : 2499117
L1I-prefetch_useless : 2749260
L1I-Avg_miss_latency : 15.5445

L2C TOTAL     ACCESS:   11436016  HIT:   10827307  MISS:     608709
L2C LOAD      ACCESS:    1707496  HIT:    1521347  MISS:     186149
L2C RFO       ACCESS:     281750  HIT:     227814  MISS:      53936
L2C PREFETCH  ACCESS:    8841661  HIT:    8475650  MISS:     366011
L2C WRITEBACK ACCESS:     605109  HIT:     602496  MISS:       2613
L2C PREFETCH  REQUESTED:    9540205  ISSUED:    9514437  USEFUL:      32542  USELESS:     332782
L2C AVERAGE MISS LATENCY: 41.8141 cycles
L2C

SHEET
L2C-total_access : 11436016
L2C-total_hit : 10827307
L2C-total_miss : 608709
L2C-load_access : 1707496
L2C-load_hit : 1521347
L2C-load_miss : 186149
L2C-rfo_access : 281750
L2C-rfo_hit : 227814
L2C-rfo_miss : 53936
L2C-prefetch_access : 8841661
L2C-prefetch_hit : 8475650
L2C-prefetch_miss : 366011
L2C-writeback_access : 605109
L2C-writeback_hit : 602496
L2C-writeback_miss : 2613
L2C-prefetch_requested : 9540205
L2C-prefetch_issued : 9514437
L2C-prefetch_useful : 32542
L2C-prefetch_useless : 332782
L2C-Avg_miss_latency : 41.8141

LLC TOTAL     ACCESS:    2881403  HIT:    2819609  MISS:      61794
LLC LOAD      ACCESS:     186087  HIT:     170514  MISS:      15573
LLC RFO       ACCESS:      53936  HIT:      51986  MISS:       1950
LLC PREFETCH  ACCESS:    2545823  HIT:    2501858  MISS:      43965
LLC WRITEBACK ACCESS:      95557  HIT:      95251  MISS:        306
LLC PREFETCH  REQUESTED:          0  ISSUED:          0  USEFUL:       2144  USELESS:      41763
LLC AVERAGE MISS LATENCY: 154.417 cycles
LLC

SHEET
LLC-total_access : 2881403
LLC-total_hit : 2819609
LLC-total_miss : 61794
LLC-load_access : 186087
LLC-load_hit : 170514
LLC-load_miss : 15573
LLC-rfo_access : 53936
LLC-rfo_hit : 51986
LLC-rfo_miss : 1950
LLC-prefetch_access : 2545823
LLC-prefetch_hit : 2501858
LLC-prefetch_miss : 43965
LLC-writeback_access : 95557
LLC-writeback_hit : 95251
LLC-writeback_miss : 306
LLC-prefetch_requested : 0
LLC-prefetch_issued : 0
LLC-prefetch_useful : 2144
LLC-prefetch_useless : 41763
LLC-Avg_miss_latency : 154.417

Major fault: 0 Minor fault: 6037



Printing Logs
statHeadFound: 1066943
statHeadMissing: 1032668
statStreamBufferHit: 12326345
statPrefetchEntryFound: 7190004
statCompactorMatch: 11753054
statStreamTrackerLookup: 14425956
statRecord: 2672902
statGetPointer: 2099611
statEnqueuePrefetch: 21314488
statPrefetchQueueIsFull: 177993
StreamBufferHitRate: 0.854456
Regions' size: 1811
next_region_correct: 1879332
next_region_wrong: 791741
next_region_correct_prediction: 0.703587
statStreamBufferLookups: 1038668832
statL1iLookups: 170515904
statCompactorLookups: 519334416
morteza: start

SHEET
mana_table_access_counter : 10040881
hobp_table_access_counter : 26458046
sab_access_counter : 19516349
srq_access_counter : 15815571

morteza: end
CPU 0 L1D next line prefetcher final stats

DRAM Statistics
 CHANNEL 0
 RQ ROW_BUFFER_HIT:      17998  ROW_BUFFER_MISS:      43490
 DBUS_CONGESTED:      26083
 WQ ROW_BUFFER_HIT:        332  ROW_BUFFER_MISS:       3032  FULL:          0

 AVG_CONGESTED_CYCLE: 5

CPU 0 Branch Prediction Accuracy: 99.7093% MPKI: 0.54708 Average ROB Occupancy at Mispredict: 130.536

Branch types
NOT_BRANCH: 40591003 81.182%
BRANCH_DIRECT_JUMP: 523493 1.04699%
BRANCH_INDIRECT: 166997 0.333994%
BRANCH_CONDITIONAL: 6365194 12.7304%
BRANCH_DIRECT_CALL: 989497 1.97899%
BRANCH_INDIRECT_CALL: 187203 0.374406%
BRANCH_RETURN: 1176700 2.3534%
BRANCH_OTHER: 0 0%

