Initialize SIGNATURE TABLE
ST_SET: 1
ST_WAY: 256
ST_TAG_BIT: 16
ST_TAG_MASK: ffff

Initialize PATTERN TABLE
PT_SET: 512
PT_WAY: 4
SIG_DELTA_BIT: 7
C_SIG_BIT: 4
C_DELTA_BIT: 4

Initialize PREFETCH FILTER
FILTER_SET: 1024
MANA initialize 
tds: 2 tdm: 2
size MANA SINGLE: 15.5 KB
size MANA NULTIPLE: 0 KB
size HOBPT: 0.703125 KB
size SRQ: 0.14502 KB
size SABs: 0.290039 KB
size prefetch queue: 0.453125 KB
total: 17.0913 KB

*** ChampSim Multicore Out-of-Order Simulator ***

Warmup Instructions: 50000000
Simulation Instructions: 50000000
Number of CPUs: 1
LLC sets: 2048
LLC ways: 16
Off-chip DRAM Size: 4096 MB Channels: 1 Width: 64-bit Data Rate: 3200 MT/s

CPU 0 runs /home/mbaradaran/ChampSim/dpc3_traces/server_022.champsimtrace.xz
CPU 0 L1D next line prefetcher
Heartbeat CPU 0 instructions: 10000002 cycles: 3631180 heartbeat IPC: 2.75393 cumulative IPC: 2.75393 (Simulation time: 0 hr 2 min 2 sec) 
Heartbeat CPU 0 instructions: 20000001 cycles: 7268598 heartbeat IPC: 2.7492 cumulative IPC: 2.75156 (Simulation time: 0 hr 4 min 2 sec) 
Heartbeat CPU 0 instructions: 30000003 cycles: 10899789 heartbeat IPC: 2.75392 cumulative IPC: 2.75235 (Simulation time: 0 hr 6 min 3 sec) 
Heartbeat CPU 0 instructions: 40000003 cycles: 14538537 heartbeat IPC: 2.7482 cumulative IPC: 2.75131 (Simulation time: 0 hr 8 min 3 sec) 
Heartbeat CPU 0 instructions: 50000002 cycles: 18167164 heartbeat IPC: 2.75586 cumulative IPC: 2.75222 (Simulation time: 0 hr 10 min 7 sec) 

Warmup complete CPU 0 instructions: 50000002 cycles: 18167164 (Simulation time: 0 hr 10 min 7 sec) 

Heartbeat CPU 0 instructions: 60000000 cycles: 34832236 heartbeat IPC: 0.600057 cumulative IPC: 0.600057 (Simulation time: 0 hr 12 min 46 sec) 
Heartbeat CPU 0 instructions: 70000001 cycles: 51595223 heartbeat IPC: 0.596552 cumulative IPC: 0.5983 (Simulation time: 0 hr 15 min 24 sec) 
Heartbeat CPU 0 instructions: 80000001 cycles: 68133901 heartbeat IPC: 0.604643 cumulative IPC: 0.600399 (Simulation time: 0 hr 18 min 3 sec) 
Heartbeat CPU 0 instructions: 90000003 cycles: 84942778 heartbeat IPC: 0.594924 cumulative IPC: 0.599021 (Simulation time: 0 hr 20 min 46 sec) 
Heartbeat CPU 0 instructions: 100000003 cycles: 101507523 heartbeat IPC: 0.603692 cumulative IPC: 0.599949 (Simulation time: 0 hr 23 min 11 sec) 
Finished CPU 0 instructions: 50000001 cycles: 83340359 cumulative IPC: 0.599949 (Simulation time: 0 hr 23 min 11 sec) 

ChampSim completed all CPUs

Region of Interest Statistics

CPU 0 cumulative IPC: 0.599949 instructions: 50000001 cycles: 83340359

SHEET
IPC : 0.599949

L1D TOTAL     ACCESS:   18816410  HIT:   16605715  MISS:    2210695
L1D LOAD      ACCESS:    7116107  HIT:    6411279  MISS:     704828
L1D RFO       ACCESS:    5885058  HIT:    4905650  MISS:     979408
L1D PREFETCH  ACCESS:    5815245  HIT:    5288786  MISS:     526459
L1D WRITEBACK ACCESS:          0  HIT:          0  MISS:          0
L1D PREFETCH  REQUESTED:    7159774  ISSUED:    6951574  USEFUL:     205292  USELESS:     321174
L1D AVERAGE MISS LATENCY: 178.138 cycles
L1D

SHEET
L1D-total_access : 18816410
L1D-total_hit : 16605715
L1D-total_miss : 2210695
L1D-load_access : 7116107
L1D-load_hit : 6411279
L1D-load_miss : 704828
L1D-rfo_access : 5885058
L1D-rfo_hit : 4905650
L1D-rfo_miss : 979408
L1D-prefetch_access : 5815245
L1D-prefetch_hit : 5288786
L1D-prefetch_miss : 526459
L1D-writeback_access : 0
L1D-writeback_hit : 0
L1D-writeback_miss : 0
L1D-prefetch_requested : 7159774
L1D-prefetch_issued : 6951574
L1D-prefetch_useful : 205292
L1D-prefetch_useless : 321174
L1D-Avg_miss_latency : 178.138

L1I TOTAL     ACCESS:   17307527  HIT:   13133574  MISS:    4173953
L1I LOAD      ACCESS:   10068503  HIT:    9591940  MISS:     476563
L1I RFO       ACCESS:          0  HIT:          0  MISS:          0
L1I PREFETCH  ACCESS:    7239024  HIT:    3541634  MISS:    3697390
L1I WRITEBACK ACCESS:          0  HIT:          0  MISS:          0
L1I PREFETCH  REQUESTED:    7861801  ISSUED:    7671173  USEFUL:    2781853  USELESS:     915536
L1I AVERAGE MISS LATENCY: 16.1718 cycles
L1I

SHEET
L1I-total_access : 17307527
L1I-total_hit : 13133574
L1I-total_miss : 4173953
L1I-load_access : 10068503
L1I-load_hit : 9591940
L1I-load_miss : 476563
L1I-rfo_access : 0
L1I-rfo_hit : 0
L1I-rfo_miss : 0
L1I-prefetch_access : 7239024
L1I-prefetch_hit : 3541634
L1I-prefetch_miss : 3697390
L1I-writeback_access : 0
L1I-writeback_hit : 0
L1I-writeback_miss : 0
L1I-prefetch_requested : 7861801
L1I-prefetch_issued : 7671173
L1I-prefetch_useful : 2781853
L1I-prefetch_useless : 915536
L1I-Avg_miss_latency : 16.1718

L2C TOTAL     ACCESS:    9165329  HIT:    7314996  MISS:    1850333
L2C LOAD      ACCESS:     821332  HIT:     568699  MISS:     252633
L2C RFO       ACCESS:     978983  HIT:      20520  MISS:     958463
L2C PREFETCH  ACCESS:    6179859  HIT:    5542717  MISS:     637142
L2C WRITEBACK ACCESS:    1185155  HIT:    1183060  MISS:       2095
L2C PREFETCH  REQUESTED:    6039762  ISSUED:    6030804  USEFUL:      27681  USELESS:     609319
L2C AVERAGE MISS LATENCY: 216.77 cycles
L2C

SHEET
L2C-total_access : 9165329
L2C-total_hit : 7314996
L2C-total_miss : 1850333
L2C-load_access : 821332
L2C-load_hit : 568699
L2C-load_miss : 252633
L2C-rfo_access : 978983
L2C-rfo_hit : 20520
L2C-rfo_miss : 958463
L2C-prefetch_access : 6179859
L2C-prefetch_hit : 5542717
L2C-prefetch_miss : 637142
L2C-writeback_access : 1185155
L2C-writeback_hit : 1183060
L2C-writeback_miss : 2095
L2C-prefetch_requested : 6039762
L2C-prefetch_issued : 6030804
L2C-prefetch_useful : 27681
L2C-prefetch_useless : 609319
L2C-Avg_miss_latency : 216.77

LLC TOTAL     ACCESS:    4393129  HIT:    3011665  MISS:    1381464
LLC LOAD      ACCESS:     252532  HIT:     178801  MISS:      73731
LLC RFO       ACCESS:     958461  HIT:     143225  MISS:     815236
LLC PREFETCH  ACCESS:    2065141  HIT:    1574654  MISS:     490487
LLC WRITEBACK ACCESS:    1116995  HIT:    1114985  MISS:       2010
LLC PREFETCH  REQUESTED:          0  ISSUED:          0  USEFUL:      28967  USELESS:     461946
LLC AVERAGE MISS LATENCY: 291.473 cycles
LLC

SHEET
LLC-total_access : 4393129
LLC-total_hit : 3011665
LLC-total_miss : 1381464
LLC-load_access : 252532
LLC-load_hit : 178801
LLC-load_miss : 73731
LLC-rfo_access : 958461
LLC-rfo_hit : 143225
LLC-rfo_miss : 815236
LLC-prefetch_access : 2065141
LLC-prefetch_hit : 1574654
LLC-prefetch_miss : 490487
LLC-writeback_access : 1116995
LLC-writeback_hit : 1114985
LLC-writeback_miss : 2010
LLC-prefetch_requested : 0
LLC-prefetch_issued : 0
LLC-prefetch_useful : 28967
LLC-prefetch_useless : 461946
LLC-Avg_miss_latency : 291.473

Major fault: 0 Minor fault: 23505



Printing Logs
statHeadFound: 527567
statHeadMissing: 1184881
statStreamBufferHit: 11843001
statPrefetchEntryFound: 4889104
statCompactorMatch: 11161899
statStreamTrackerLookup: 13555449
statRecord: 2393550
statGetPointer: 1712448
statEnqueuePrefetch: 15304811
statPrefetchQueueIsFull: 42592
StreamBufferHitRate: 0.873671
Regions' size: 1302
next_region_correct: 2016881
next_region_wrong: 375349
next_region_correct_prediction: 0.843097
statStreamBufferLookups: 975992328
statL1iLookups: 122438488
statCompactorLookups: 487996164
morteza: start

SHEET
mana_table_access_counter : 7325228
hobp_table_access_counter : 21355649
sab_access_counter : 16732105
srq_access_counter : 14975158

morteza: end
CPU 0 L1D next line prefetcher final stats

DRAM Statistics
 CHANNEL 0
 RQ ROW_BUFFER_HIT:     404098  ROW_BUFFER_MISS:     975052
 DBUS_CONGESTED:    1433578
 WQ ROW_BUFFER_HIT:     259894  ROW_BUFFER_MISS:     639737  FULL:          0

 AVG_CONGESTED_CYCLE: 6

CPU 0 Branch Prediction Accuracy: 99.8317% MPKI: 0.27564 Average ROB Occupancy at Mispredict: 213.128

Branch types
NOT_BRANCH: 41811139 83.6223%
BRANCH_DIRECT_JUMP: 445742 0.891484%
BRANCH_INDIRECT: 48876 0.097752%
BRANCH_CONDITIONAL: 5859405 11.7188%
BRANCH_DIRECT_CALL: 758266 1.51653%
BRANCH_INDIRECT_CALL: 159103 0.318206%
BRANCH_RETURN: 917372 1.83474%
BRANCH_OTHER: 0 0%

