Initialize SIGNATURE TABLE
ST_SET: 1
ST_WAY: 256
ST_TAG_BIT: 16
ST_TAG_MASK: ffff

Initialize PATTERN TABLE
PT_SET: 512
PT_WAY: 4
SIG_DELTA_BIT: 7
C_SIG_BIT: 4
C_DELTA_BIT: 4

Initialize PREFETCH FILTER
FILTER_SET: 1024
MANA initialize 
tds: 2 tdm: 2
size MANA SINGLE: 15.5 KB
size MANA NULTIPLE: 0 KB
size HOBPT: 0.703125 KB
size SRQ: 0.14502 KB
size SABs: 0.290039 KB
size prefetch queue: 0.453125 KB
total: 17.0913 KB

*** ChampSim Multicore Out-of-Order Simulator ***

Warmup Instructions: 50000000
Simulation Instructions: 50000000
Number of CPUs: 1
LLC sets: 2048
LLC ways: 16
Off-chip DRAM Size: 4096 MB Channels: 1 Width: 64-bit Data Rate: 3200 MT/s

CPU 0 runs /home/mbaradaran/ChampSim/dpc3_traces/server_020.champsimtrace.xz
CPU 0 L1D next line prefetcher
Heartbeat CPU 0 instructions: 10000003 cycles: 3629667 heartbeat IPC: 2.75507 cumulative IPC: 2.75507 (Simulation time: 0 hr 1 min 58 sec) 
Heartbeat CPU 0 instructions: 20000002 cycles: 7263547 heartbeat IPC: 2.75188 cumulative IPC: 2.75348 (Simulation time: 0 hr 4 min 5 sec) 
Heartbeat CPU 0 instructions: 30000001 cycles: 10890532 heartbeat IPC: 2.75711 cumulative IPC: 2.75469 (Simulation time: 0 hr 6 min 7 sec) 
Heartbeat CPU 0 instructions: 40000002 cycles: 14518758 heartbeat IPC: 2.75617 cumulative IPC: 2.75506 (Simulation time: 0 hr 8 min 11 sec) 
Heartbeat CPU 0 instructions: 50000001 cycles: 18160735 heartbeat IPC: 2.74576 cumulative IPC: 2.75319 (Simulation time: 0 hr 10 min 12 sec) 

Warmup complete CPU 0 instructions: 50000001 cycles: 18160735 (Simulation time: 0 hr 10 min 12 sec) 

Heartbeat CPU 0 instructions: 60000003 cycles: 35556500 heartbeat IPC: 0.574853 cumulative IPC: 0.574853 (Simulation time: 0 hr 12 min 59 sec) 
Heartbeat CPU 0 instructions: 70000002 cycles: 52938118 heartbeat IPC: 0.57532 cumulative IPC: 0.575086 (Simulation time: 0 hr 15 min 47 sec) 
Heartbeat CPU 0 instructions: 80000002 cycles: 70231791 heartbeat IPC: 0.578246 cumulative IPC: 0.576136 (Simulation time: 0 hr 18 min 29 sec) 
Heartbeat CPU 0 instructions: 90000001 cycles: 87512250 heartbeat IPC: 0.578688 cumulative IPC: 0.576772 (Simulation time: 0 hr 21 min 11 sec) 
Heartbeat CPU 0 instructions: 100000002 cycles: 104780907 heartbeat IPC: 0.579084 cumulative IPC: 0.577233 (Simulation time: 0 hr 23 min 34 sec) 
Finished CPU 0 instructions: 50000001 cycles: 86620172 cumulative IPC: 0.577233 (Simulation time: 0 hr 23 min 34 sec) 

ChampSim completed all CPUs

Region of Interest Statistics

CPU 0 cumulative IPC: 0.577233 instructions: 50000001 cycles: 86620172

SHEET
IPC : 0.577233

L1D TOTAL     ACCESS:   18722309  HIT:   16518133  MISS:    2204176
L1D LOAD      ACCESS:    7095777  HIT:    6374357  MISS:     721420
L1D RFO       ACCESS:    5808638  HIT:    4862791  MISS:     945847
L1D PREFETCH  ACCESS:    5817894  HIT:    5280985  MISS:     536909
L1D WRITEBACK ACCESS:          0  HIT:          0  MISS:          0
L1D PREFETCH  REQUESTED:    7139709  ISSUED:    6938780  USEFUL:     197680  USELESS:     339148
L1D AVERAGE MISS LATENCY: 175.333 cycles
L1D

SHEET
L1D-total_access : 18722309
L1D-total_hit : 16518133
L1D-total_miss : 2204176
L1D-load_access : 7095777
L1D-load_hit : 6374357
L1D-load_miss : 721420
L1D-rfo_access : 5808638
L1D-rfo_hit : 4862791
L1D-rfo_miss : 945847
L1D-prefetch_access : 5817894
L1D-prefetch_hit : 5280985
L1D-prefetch_miss : 536909
L1D-writeback_access : 0
L1D-writeback_hit : 0
L1D-writeback_miss : 0
L1D-prefetch_requested : 7139709
L1D-prefetch_issued : 6938780
L1D-prefetch_useful : 197680
L1D-prefetch_useless : 339148
L1D-Avg_miss_latency : 175.333

L1I TOTAL     ACCESS:   17100795  HIT:   13064174  MISS:    4036621
L1I LOAD      ACCESS:   10029305  HIT:    9601871  MISS:     427434
L1I RFO       ACCESS:          0  HIT:          0  MISS:          0
L1I PREFETCH  ACCESS:    7071490  HIT:    3462303  MISS:    3609187
L1I WRITEBACK ACCESS:          0  HIT:          0  MISS:          0
L1I PREFETCH  REQUESTED:    7655952  ISSUED:    7461842  USEFUL:    2728958  USELESS:     880215
L1I AVERAGE MISS LATENCY: 16.6503 cycles
L1I

SHEET
L1I-total_access : 17100795
L1I-total_hit : 13064174
L1I-total_miss : 4036621
L1I-load_access : 10029305
L1I-load_hit : 9601871
L1I-load_miss : 427434
L1I-rfo_access : 0
L1I-rfo_hit : 0
L1I-rfo_miss : 0
L1I-prefetch_access : 7071490
L1I-prefetch_hit : 3462303
L1I-prefetch_miss : 3609187
L1I-writeback_access : 0
L1I-writeback_hit : 0
L1I-writeback_miss : 0
L1I-prefetch_requested : 7655952
L1I-prefetch_issued : 7461842
L1I-prefetch_useful : 2728958
L1I-prefetch_useless : 880215
L1I-Avg_miss_latency : 16.6503

L2C TOTAL     ACCESS:    8935414  HIT:    7087565  MISS:    1847849
L2C LOAD      ACCESS:     815892  HIT:     542822  MISS:     273070
L2C RFO       ACCESS:     945474  HIT:      20154  MISS:     925320
L2C PREFETCH  ACCESS:    6010474  HIT:    5363647  MISS:     646827
L2C WRITEBACK ACCESS:    1163574  HIT:    1160942  MISS:       2632
L2C PREFETCH  REQUESTED:    6040555  ISSUED:    6033518  USEFUL:      30084  USELESS:     615661
L2C AVERAGE MISS LATENCY: 213.344 cycles
L2C

SHEET
L2C-total_access : 8935414
L2C-total_hit : 7087565
L2C-total_miss : 1847849
L2C-load_access : 815892
L2C-load_hit : 542822
L2C-load_miss : 273070
L2C-rfo_access : 945474
L2C-rfo_hit : 20154
L2C-rfo_miss : 925320
L2C-prefetch_access : 6010474
L2C-prefetch_hit : 5363647
L2C-prefetch_miss : 646827
L2C-writeback_access : 1163574
L2C-writeback_hit : 1160942
L2C-writeback_miss : 2632
L2C-prefetch_requested : 6040555
L2C-prefetch_issued : 6033518
L2C-prefetch_useful : 30084
L2C-prefetch_useless : 615661
L2C-Avg_miss_latency : 213.344

LLC TOTAL     ACCESS:    4395772  HIT:    2963791  MISS:    1431981
LLC LOAD      ACCESS:     272990  HIT:     170021  MISS:     102969
LLC RFO       ACCESS:     925266  HIT:     140004  MISS:     785262
LLC PREFETCH  ACCESS:    2099749  HIT:    1557877  MISS:     541872
LLC WRITEBACK ACCESS:    1097767  HIT:    1095889  MISS:       1878
LLC PREFETCH  REQUESTED:          0  ISSUED:          0  USEFUL:      31992  USELESS:     510198
LLC AVERAGE MISS LATENCY: 280.211 cycles
LLC

SHEET
LLC-total_access : 4395772
LLC-total_hit : 2963791
LLC-total_miss : 1431981
LLC-load_access : 272990
LLC-load_hit : 170021
LLC-load_miss : 102969
LLC-rfo_access : 925266
LLC-rfo_hit : 140004
LLC-rfo_miss : 785262
LLC-prefetch_access : 2099749
LLC-prefetch_hit : 1557877
LLC-prefetch_miss : 541872
LLC-writeback_access : 1097767
LLC-writeback_hit : 1095889
LLC-writeback_miss : 1878
LLC-prefetch_requested : 0
LLC-prefetch_issued : 0
LLC-prefetch_useful : 31992
LLC-prefetch_useless : 510198
LLC-Avg_miss_latency : 280.211

Major fault: 0 Minor fault: 22091



Printing Logs
statHeadFound: 500853
statHeadMissing: 1183706
statStreamBufferHit: 11757889
statPrefetchEntryFound: 4753388
statCompactorMatch: 11099570
statStreamTrackerLookup: 13442448
statRecord: 2342878
statGetPointer: 1684559
statEnqueuePrefetch: 14884745
statPrefetchQueueIsFull: 27030
StreamBufferHitRate: 0.874684
Regions' size: 1109
next_region_correct: 1980470
next_region_wrong: 361281
next_region_correct_prediction: 0.845722
statStreamBufferLookups: 967856256
statL1iLookups: 119077960
statCompactorLookups: 483928128
morteza: start

SHEET
mana_table_access_counter : 7123278
hobp_table_access_counter : 20890126
sab_access_counter : 16511277
srq_access_counter : 14756599

morteza: end
CPU 0 L1D next line prefetcher final stats

DRAM Statistics
 CHANNEL 0
 RQ ROW_BUFFER_HIT:     406775  ROW_BUFFER_MISS:    1023043
 DBUS_CONGESTED:    1441966
 WQ ROW_BUFFER_HIT:     249395  ROW_BUFFER_MISS:     639633  FULL:          0

 AVG_CONGESTED_CYCLE: 6

CPU 0 Branch Prediction Accuracy: 99.712% MPKI: 0.47638 Average ROB Occupancy at Mispredict: 209.192

Branch types
NOT_BRANCH: 41729409 83.4588%
BRANCH_DIRECT_JUMP: 458219 0.916438%
BRANCH_INDIRECT: 49088 0.098176%
BRANCH_CONDITIONAL: 5938518 11.877%
BRANCH_DIRECT_CALL: 745129 1.49026%
BRANCH_INDIRECT_CALL: 167107 0.334214%
BRANCH_RETURN: 912219 1.82444%
BRANCH_OTHER: 0 0%

