Initialize SIGNATURE TABLE
ST_SET: 1
ST_WAY: 256
ST_TAG_BIT: 16
ST_TAG_MASK: ffff

Initialize PATTERN TABLE
PT_SET: 512
PT_WAY: 4
SIG_DELTA_BIT: 7
C_SIG_BIT: 4
C_DELTA_BIT: 4

Initialize PREFETCH FILTER
FILTER_SET: 1024
MANA initialize 
tds: 2 tdm: 2
size MANA SINGLE: 15.5 KB
size MANA NULTIPLE: 0 KB
size HOBPT: 0.703125 KB
size SRQ: 0.14502 KB
size SABs: 0.290039 KB
size prefetch queue: 0.453125 KB
total: 17.0913 KB

*** ChampSim Multicore Out-of-Order Simulator ***

Warmup Instructions: 50000000
Simulation Instructions: 50000000
Number of CPUs: 1
LLC sets: 2048
LLC ways: 16
Off-chip DRAM Size: 4096 MB Channels: 1 Width: 64-bit Data Rate: 3200 MT/s

CPU 0 runs /home/mbaradaran/ChampSim/dpc3_traces/server_001.champsimtrace.xz
CPU 0 L1D next line prefetcher
Heartbeat CPU 0 instructions: 10000002 cycles: 3157267 heartbeat IPC: 3.1673 cumulative IPC: 3.1673 (Simulation time: 0 hr 1 min 36 sec) 
Heartbeat CPU 0 instructions: 20000000 cycles: 6374916 heartbeat IPC: 3.10786 cumulative IPC: 3.1373 (Simulation time: 0 hr 3 min 24 sec) 
Heartbeat CPU 0 instructions: 30000003 cycles: 9564751 heartbeat IPC: 3.13496 cumulative IPC: 3.13652 (Simulation time: 0 hr 5 min 10 sec) 
Heartbeat CPU 0 instructions: 40000002 cycles: 12775294 heartbeat IPC: 3.11474 cumulative IPC: 3.13104 (Simulation time: 0 hr 6 min 56 sec) 
Heartbeat CPU 0 instructions: 50000003 cycles: 15997608 heartbeat IPC: 3.10336 cumulative IPC: 3.12547 (Simulation time: 0 hr 8 min 35 sec) 

Warmup complete CPU 0 instructions: 50000003 cycles: 15997608 (Simulation time: 0 hr 8 min 35 sec) 

Heartbeat CPU 0 instructions: 60000000 cycles: 23638720 heartbeat IPC: 1.30871 cumulative IPC: 1.30871 (Simulation time: 0 hr 10 min 7 sec) 
Heartbeat CPU 0 instructions: 70000002 cycles: 30861536 heartbeat IPC: 1.3845 cumulative IPC: 1.34554 (Simulation time: 0 hr 11 min 41 sec) 
Heartbeat CPU 0 instructions: 80000002 cycles: 38078344 heartbeat IPC: 1.38565 cumulative IPC: 1.35865 (Simulation time: 0 hr 13 min 12 sec) 
Heartbeat CPU 0 instructions: 90000002 cycles: 45660555 heartbeat IPC: 1.31888 cumulative IPC: 1.34848 (Simulation time: 0 hr 14 min 50 sec) 
Heartbeat CPU 0 instructions: 100000003 cycles: 52777424 heartbeat IPC: 1.40511 cumulative IPC: 1.35944 (Simulation time: 0 hr 16 min 25 sec) 
Finished CPU 0 instructions: 50000000 cycles: 36779816 cumulative IPC: 1.35944 (Simulation time: 0 hr 16 min 25 sec) 

ChampSim completed all CPUs

Region of Interest Statistics

CPU 0 cumulative IPC: 1.35944 instructions: 50000000 cycles: 36779816

SHEET
IPC : 1.35944

L1D TOTAL     ACCESS:   17852638  HIT:   17341458  MISS:     511180
L1D LOAD      ACCESS:    6564031  HIT:    6360296  MISS:     203735
L1D RFO       ACCESS:    5057946  HIT:    4975234  MISS:      82712
L1D PREFETCH  ACCESS:    6230661  HIT:    6005928  MISS:     224733
L1D WRITEBACK ACCESS:          0  HIT:          0  MISS:          0
L1D PREFETCH  REQUESTED:    6593897  ISSUED:    6407192  USEFUL:     132941  USELESS:      91917
L1D AVERAGE MISS LATENCY: 96.7948 cycles
L1D

SHEET
L1D-total_access : 17852638
L1D-total_hit : 17341458
L1D-total_miss : 511180
L1D-load_access : 6564031
L1D-load_hit : 6360296
L1D-load_miss : 203735
L1D-rfo_access : 5057946
L1D-rfo_hit : 4975234
L1D-rfo_miss : 82712
L1D-prefetch_access : 6230661
L1D-prefetch_hit : 6005928
L1D-prefetch_miss : 224733
L1D-writeback_access : 0
L1D-writeback_hit : 0
L1D-writeback_miss : 0
L1D-prefetch_requested : 6593897
L1D-prefetch_issued : 6407192
L1D-prefetch_useful : 132941
L1D-prefetch_useless : 91917
L1D-Avg_miss_latency : 96.7948

L1I TOTAL     ACCESS:   14804008  HIT:   12493314  MISS:    2310694
L1I LOAD      ACCESS:    8247967  HIT:    7937151  MISS:     310816
L1I RFO       ACCESS:          0  HIT:          0  MISS:          0
L1I PREFETCH  ACCESS:    6556041  HIT:    4556163  MISS:    1999878
L1I WRITEBACK ACCESS:          0  HIT:          0  MISS:          0
L1I PREFETCH  REQUESTED:    7293767  ISSUED:    6870827  USEFUL:    1078134  USELESS:     921822
L1I AVERAGE MISS LATENCY: 20.9381 cycles
L1I

SHEET
L1I-total_access : 14804008
L1I-total_hit : 12493314
L1I-total_miss : 2310694
L1I-load_access : 8247967
L1I-load_hit : 7937151
L1I-load_miss : 310816
L1I-rfo_access : 0
L1I-rfo_hit : 0
L1I-rfo_miss : 0
L1I-prefetch_access : 6556041
L1I-prefetch_hit : 4556163
L1I-prefetch_miss : 1999878
L1I-writeback_access : 0
L1I-writeback_hit : 0
L1I-writeback_miss : 0
L1I-prefetch_requested : 7293767
L1I-prefetch_issued : 6870827
L1I-prefetch_useful : 1078134
L1I-prefetch_useless : 921822
L1I-Avg_miss_latency : 20.9381

L2C TOTAL     ACCESS:    3977537  HIT:    3486395  MISS:     491142
L2C LOAD      ACCESS:     423301  HIT:     305077  MISS:     118224
L2C RFO       ACCESS:      80927  HIT:       9828  MISS:      71099
L2C PREFETCH  ACCESS:    3265452  HIT:    2964426  MISS:     301026
L2C WRITEBACK ACCESS:     207857  HIT:     207064  MISS:        793
L2C PREFETCH  REQUESTED:    3815767  ISSUED:    3808662  USEFUL:      32785  USELESS:     267186
L2C AVERAGE MISS LATENCY: 121.86 cycles
L2C

SHEET
L2C-total_access : 3977537
L2C-total_hit : 3486395
L2C-total_miss : 491142
L2C-load_access : 423301
L2C-load_hit : 305077
L2C-load_miss : 118224
L2C-rfo_access : 80927
L2C-rfo_hit : 9828
L2C-rfo_miss : 71099
L2C-prefetch_access : 3265452
L2C-prefetch_hit : 2964426
L2C-prefetch_miss : 301026
L2C-writeback_access : 207857
L2C-writeback_hit : 207064
L2C-writeback_miss : 793
L2C-prefetch_requested : 3815767
L2C-prefetch_issued : 3808662
L2C-prefetch_useful : 32785
L2C-prefetch_useless : 267186
L2C-Avg_miss_latency : 121.86

LLC TOTAL     ACCESS:    1442615  HIT:    1115556  MISS:     327059
LLC LOAD      ACCESS:     118018  HIT:      80121  MISS:      37897
LLC RFO       ACCESS:      71097  HIT:       6892  MISS:      64205
LLC PREFETCH  ACCESS:    1084652  HIT:     859935  MISS:     224717
LLC WRITEBACK ACCESS:     168848  HIT:     168608  MISS:        240
LLC PREFETCH  REQUESTED:          0  ISSUED:          0  USEFUL:      29566  USELESS:     190028
LLC AVERAGE MISS LATENCY: 222.928 cycles
LLC

SHEET
LLC-total_access : 1442615
LLC-total_hit : 1115556
LLC-total_miss : 327059
LLC-load_access : 118018
LLC-load_hit : 80121
LLC-load_miss : 37897
LLC-rfo_access : 71097
LLC-rfo_hit : 6892
LLC-rfo_miss : 64205
LLC-prefetch_access : 1084652
LLC-prefetch_hit : 859935
LLC-prefetch_miss : 224717
LLC-writeback_access : 168848
LLC-writeback_hit : 168608
LLC-writeback_miss : 240
LLC-prefetch_requested : 0
LLC-prefetch_issued : 0
LLC-prefetch_useful : 29566
LLC-prefetch_useless : 190028
LLC-Avg_miss_latency : 222.928

Major fault: 0 Minor fault: 16697



Printing Logs
statHeadFound: 407559
statHeadMissing: 423622
statStreamBufferHit: 9565645
statPrefetchEntryFound: 3580480
statCompactorMatch: 9207675
statStreamTrackerLookup: 10396826
statRecord: 1189151
statGetPointer: 831181
statEnqueuePrefetch: 13734906
statPrefetchQueueIsFull: 41042
StreamBufferHitRate: 0.920054
Regions' size: 3020
next_region_correct: 953212
next_region_wrong: 232901
next_region_correct_prediction: 0.803643
statStreamBufferLookups: 748571472
statL1iLookups: 109879248
statCompactorLookups: 374285736
morteza: start

SHEET
mana_table_access_counter : 4810655
hobp_table_access_counter : 11702856
sab_access_counter : 13146125
srq_access_counter : 10076902

morteza: end
CPU 0 L1D next line prefetcher final stats

DRAM Statistics
 CHANNEL 0
 RQ ROW_BUFFER_HIT:      98204  ROW_BUFFER_MISS:     228588
 DBUS_CONGESTED:     224219
 WQ ROW_BUFFER_HIT:      34311  ROW_BUFFER_MISS:     124802  FULL:          0

 AVG_CONGESTED_CYCLE: 6

CPU 0 Branch Prediction Accuracy: 99.5889% MPKI: 0.70108 Average ROB Occupancy at Mispredict: 101.691

Branch types
NOT_BRANCH: 41473577 82.9472%
BRANCH_DIRECT_JUMP: 347941 0.695882%
BRANCH_INDIRECT: 148212 0.296424%
BRANCH_CONDITIONAL: 6817276 13.6346%
BRANCH_DIRECT_CALL: 570724 1.14145%
BRANCH_INDIRECT_CALL: 25133 0.050266%
BRANCH_RETURN: 617123 1.23425%
BRANCH_OTHER: 0 0%

