Initialize SIGNATURE TABLE
ST_SET: 1
ST_WAY: 256
ST_TAG_BIT: 16
ST_TAG_MASK: ffff

Initialize PATTERN TABLE
PT_SET: 512
PT_WAY: 4
SIG_DELTA_BIT: 7
C_SIG_BIT: 4
C_DELTA_BIT: 4

Initialize PREFETCH FILTER
FILTER_SET: 1024
MANA initialize 
tds: 2 tdm: 2
size MANA SINGLE: 15.5 KB
size MANA NULTIPLE: 0 KB
size HOBPT: 0.703125 KB
size SRQ: 0.14502 KB
size SABs: 0.290039 KB
size prefetch queue: 0.453125 KB
total: 17.0913 KB

*** ChampSim Multicore Out-of-Order Simulator ***

Warmup Instructions: 50000000
Simulation Instructions: 50000000
Number of CPUs: 1
LLC sets: 2048
LLC ways: 16
Off-chip DRAM Size: 4096 MB Channels: 1 Width: 64-bit Data Rate: 3200 MT/s

CPU 0 runs /home/mbaradaran/ChampSim/dpc3_traces/server_002.champsimtrace.xz
CPU 0 L1D next line prefetcher
Heartbeat CPU 0 instructions: 10000000 cycles: 3581276 heartbeat IPC: 2.7923 cumulative IPC: 2.7923 (Simulation time: 0 hr 1 min 53 sec) 
Heartbeat CPU 0 instructions: 20000002 cycles: 7170945 heartbeat IPC: 2.78577 cumulative IPC: 2.78903 (Simulation time: 0 hr 4 min 0 sec) 
Heartbeat CPU 0 instructions: 30000000 cycles: 10711793 heartbeat IPC: 2.82418 cumulative IPC: 2.80065 (Simulation time: 0 hr 5 min 59 sec) 
Heartbeat CPU 0 instructions: 40000000 cycles: 14262038 heartbeat IPC: 2.81671 cumulative IPC: 2.80465 (Simulation time: 0 hr 8 min 0 sec) 
Heartbeat CPU 0 instructions: 50000001 cycles: 17809809 heartbeat IPC: 2.81867 cumulative IPC: 2.80744 (Simulation time: 0 hr 9 min 58 sec) 

Warmup complete CPU 0 instructions: 50000001 cycles: 17809809 (Simulation time: 0 hr 9 min 58 sec) 

Heartbeat CPU 0 instructions: 60000000 cycles: 24774852 heartbeat IPC: 1.43574 cumulative IPC: 1.43574 (Simulation time: 0 hr 11 min 39 sec) 
Heartbeat CPU 0 instructions: 70000003 cycles: 31743320 heartbeat IPC: 1.43504 cumulative IPC: 1.43539 (Simulation time: 0 hr 13 min 18 sec) 
Heartbeat CPU 0 instructions: 80000003 cycles: 38698641 heartbeat IPC: 1.43775 cumulative IPC: 1.43617 (Simulation time: 0 hr 14 min 59 sec) 
Heartbeat CPU 0 instructions: 90000002 cycles: 45682271 heartbeat IPC: 1.43192 cumulative IPC: 1.43511 (Simulation time: 0 hr 16 min 39 sec) 
Heartbeat CPU 0 instructions: 100000003 cycles: 52657627 heartbeat IPC: 1.43362 cumulative IPC: 1.43481 (Simulation time: 0 hr 18 min 23 sec) 
Finished CPU 0 instructions: 50000002 cycles: 34847818 cumulative IPC: 1.43481 (Simulation time: 0 hr 18 min 23 sec) 

ChampSim completed all CPUs

Region of Interest Statistics

CPU 0 cumulative IPC: 1.43481 instructions: 50000002 cycles: 34847818

SHEET
IPC : 1.43481

L1D TOTAL     ACCESS:   22165904  HIT:   22165095  MISS:        809
L1D LOAD      ACCESS:    6909151  HIT:    6908774  MISS:        377
L1D RFO       ACCESS:    8447391  HIT:    8447279  MISS:        112
L1D PREFETCH  ACCESS:    6809362  HIT:    6809042  MISS:        320
L1D WRITEBACK ACCESS:          0  HIT:          0  MISS:          0
L1D PREFETCH  REQUESTED:    6909203  ISSUED:    6817349  USEFUL:         91  USELESS:        231
L1D AVERAGE MISS LATENCY: 37.3881 cycles
L1D

SHEET
L1D-total_access : 22165904
L1D-total_hit : 22165095
L1D-total_miss : 809
L1D-load_access : 6909151
L1D-load_hit : 6908774
L1D-load_miss : 377
L1D-rfo_access : 8447391
L1D-rfo_hit : 8447279
L1D-rfo_miss : 112
L1D-prefetch_access : 6809362
L1D-prefetch_hit : 6809042
L1D-prefetch_miss : 320
L1D-writeback_access : 0
L1D-writeback_hit : 0
L1D-writeback_miss : 0
L1D-prefetch_requested : 6909203
L1D-prefetch_issued : 6817349
L1D-prefetch_useful : 91
L1D-prefetch_useless : 231
L1D-Avg_miss_latency : 37.3881

L1I TOTAL     ACCESS:   22390600  HIT:   16606744  MISS:    5783856
L1I LOAD      ACCESS:    9638361  HIT:    8738115  MISS:     900246
L1I RFO       ACCESS:          0  HIT:          0  MISS:          0
L1I PREFETCH  ACCESS:   12752239  HIT:    7868629  MISS:    4883610
L1I WRITEBACK ACCESS:          0  HIT:          0  MISS:          0
L1I PREFETCH  REQUESTED:   14246559  ISSUED:   14052968  USEFUL:    2924448  USELESS:    1959137
L1I AVERAGE MISS LATENCY: 14.0863 cycles
L1I

SHEET
L1I-total_access : 22390600
L1I-total_hit : 16606744
L1I-total_miss : 5783856
L1I-load_access : 9638361
L1I-load_hit : 8738115
L1I-load_miss : 900246
L1I-rfo_access : 0
L1I-rfo_hit : 0
L1I-rfo_miss : 0
L1I-prefetch_access : 12752239
L1I-prefetch_hit : 7868629
L1I-prefetch_miss : 4883610
L1I-writeback_access : 0
L1I-writeback_hit : 0
L1I-writeback_miss : 0
L1I-prefetch_requested : 14246559
L1I-prefetch_issued : 14052968
L1I-prefetch_useful : 2924448
L1I-prefetch_useless : 1959137
L1I-Avg_miss_latency : 14.0863

L2C TOTAL     ACCESS:    7577697  HIT:    7577417  MISS:        280
L2C LOAD      ACCESS:     680994  HIT:     680919  MISS:         75
L2C RFO       ACCESS:        112  HIT:        110  MISS:          2
L2C PREFETCH  ACCESS:    6896255  HIT:    6896055  MISS:        200
L2C WRITEBACK ACCESS:        336  HIT:        333  MISS:          3
L2C PREFETCH  REQUESTED:    4792158  ISSUED:    4791916  USEFUL:         53  USELESS:        113
L2C AVERAGE MISS LATENCY: 97.9321 cycles
L2C

SHEET
L2C-total_access : 7577697
L2C-total_hit : 7577417
L2C-total_miss : 280
L2C-load_access : 680994
L2C-load_hit : 680919
L2C-load_miss : 75
L2C-rfo_access : 112
L2C-rfo_hit : 110
L2C-rfo_miss : 2
L2C-prefetch_access : 6896255
L2C-prefetch_hit : 6896055
L2C-prefetch_miss : 200
L2C-writeback_access : 336
L2C-writeback_hit : 333
L2C-writeback_miss : 3
L2C-prefetch_requested : 4792158
L2C-prefetch_issued : 4791916
L2C-prefetch_useful : 53
L2C-prefetch_useless : 113
L2C-Avg_miss_latency : 97.9321

LLC TOTAL     ACCESS:     970618  HIT:     970039  MISS:        579
LLC LOAD      ACCESS:         75  HIT:         61  MISS:         14
LLC RFO       ACCESS:          2  HIT:          0  MISS:          2
LLC PREFETCH  ACCESS:     970447  HIT:     969887  MISS:        560
LLC WRITEBACK ACCESS:         94  HIT:         91  MISS:          3
LLC PREFETCH  REQUESTED:          0  ISSUED:          0  USEFUL:         11  USELESS:        153
LLC AVERAGE MISS LATENCY: 252.244 cycles
LLC

SHEET
LLC-total_access : 970618
LLC-total_hit : 970039
LLC-total_miss : 579
LLC-load_access : 75
LLC-load_hit : 61
LLC-load_miss : 14
LLC-rfo_access : 2
LLC-rfo_hit : 0
LLC-rfo_miss : 2
LLC-prefetch_access : 970447
LLC-prefetch_hit : 969887
LLC-prefetch_miss : 560
LLC-writeback_access : 94
LLC-writeback_hit : 91
LLC-writeback_miss : 3
LLC-prefetch_requested : 0
LLC-prefetch_issued : 0
LLC-prefetch_useful : 11
LLC-prefetch_useless : 153
LLC-Avg_miss_latency : 252.244

Major fault: 0 Minor fault: 1867



Printing Logs
statHeadFound: 1213886
statHeadMissing: 323806
statStreamBufferHit: 13158225
statPrefetchEntryFound: 9160951
statCompactorMatch: 11409755
statStreamTrackerLookup: 14695917
statRecord: 3286162
statGetPointer: 1537692
statEnqueuePrefetch: 27206342
statPrefetchQueueIsFull: 8446
StreamBufferHitRate: 0.895366
Regions' size: 2499
next_region_correct: 2254514
next_region_wrong: 1029131
next_region_correct_prediction: 0.686589
statStreamBufferLookups: 1058106024
statL1iLookups: 217650736
statCompactorLookups: 529053012
morteza: start

SHEET
mana_table_access_counter : 12455541
hobp_table_access_counter : 28464773
sab_access_counter : 22319176
srq_access_counter : 17009784

morteza: end
CPU 0 L1D next line prefetcher final stats

DRAM Statistics
 CHANNEL 0
 RQ ROW_BUFFER_HIT:         88  ROW_BUFFER_MISS:        488
 DBUS_CONGESTED:        321
 WQ ROW_BUFFER_HIT:         79  ROW_BUFFER_MISS:        291  FULL:          0

 AVG_CONGESTED_CYCLE: 6

CPU 0 Branch Prediction Accuracy: 99.8789% MPKI: 0.20388 Average ROB Occupancy at Mispredict: 81.698

Branch types
NOT_BRANCH: 41580689 83.1614%
BRANCH_DIRECT_JUMP: 461630 0.92326%
BRANCH_INDIRECT: 0 0%
BRANCH_CONDITIONAL: 5376435 10.7529%
BRANCH_DIRECT_CALL: 1175774 2.35155%
BRANCH_INDIRECT_CALL: 114840 0.22968%
BRANCH_RETURN: 1290625 2.58125%
BRANCH_OTHER: 0 0%

