Initialize SIGNATURE TABLE
ST_SET: 1
ST_WAY: 256
ST_TAG_BIT: 16
ST_TAG_MASK: ffff

Initialize PATTERN TABLE
PT_SET: 512
PT_WAY: 4
SIG_DELTA_BIT: 7
C_SIG_BIT: 4
C_DELTA_BIT: 4

Initialize PREFETCH FILTER
FILTER_SET: 1024
MANA initialize 
tds: 2 tdm: 2
size MANA SINGLE: 15.5 KB
size MANA NULTIPLE: 0 KB
size HOBPT: 0.703125 KB
size SRQ: 0.14502 KB
size SABs: 0.290039 KB
size prefetch queue: 0.453125 KB
total: 17.0913 KB

*** ChampSim Multicore Out-of-Order Simulator ***

Warmup Instructions: 50000000
Simulation Instructions: 50000000
Number of CPUs: 1
LLC sets: 2048
LLC ways: 16
Off-chip DRAM Size: 4096 MB Channels: 1 Width: 64-bit Data Rate: 3200 MT/s

CPU 0 runs /home/mbaradaran/ChampSim/dpc3_traces/server_009.champsimtrace.xz
CPU 0 L1D next line prefetcher
Heartbeat CPU 0 instructions: 10000003 cycles: 3208121 heartbeat IPC: 3.11709 cumulative IPC: 3.11709 (Simulation time: 0 hr 1 min 50 sec) 
Heartbeat CPU 0 instructions: 20000001 cycles: 6411024 heartbeat IPC: 3.12217 cumulative IPC: 3.11963 (Simulation time: 0 hr 3 min 40 sec) 
Heartbeat CPU 0 instructions: 30000002 cycles: 9628339 heartbeat IPC: 3.10818 cumulative IPC: 3.1158 (Simulation time: 0 hr 5 min 25 sec) 
Heartbeat CPU 0 instructions: 40000003 cycles: 12843041 heartbeat IPC: 3.11071 cumulative IPC: 3.11453 (Simulation time: 0 hr 7 min 8 sec) 
Heartbeat CPU 0 instructions: 50000000 cycles: 16112972 heartbeat IPC: 3.05817 cumulative IPC: 3.10309 (Simulation time: 0 hr 8 min 58 sec) 

Warmup complete CPU 0 instructions: 50000004 cycles: 16112973 (Simulation time: 0 hr 8 min 58 sec) 

Heartbeat CPU 0 instructions: 60000002 cycles: 32226346 heartbeat IPC: 0.620603 cumulative IPC: 0.620602 (Simulation time: 0 hr 11 min 12 sec) 
Heartbeat CPU 0 instructions: 70000003 cycles: 53501279 heartbeat IPC: 0.470037 cumulative IPC: 0.534927 (Simulation time: 0 hr 13 min 52 sec) 
Heartbeat CPU 0 instructions: 80000001 cycles: 61299980 heartbeat IPC: 1.28226 cumulative IPC: 0.663908 (Simulation time: 0 hr 15 min 23 sec) 
Heartbeat CPU 0 instructions: 90000001 cycles: 69218933 heartbeat IPC: 1.26279 cumulative IPC: 0.753211 (Simulation time: 0 hr 16 min 59 sec) 
Heartbeat CPU 0 instructions: 100000003 cycles: 77068748 heartbeat IPC: 1.27392 cumulative IPC: 0.820267 (Simulation time: 0 hr 18 min 34 sec) 
Finished CPU 0 instructions: 50000003 cycles: 60955776 cumulative IPC: 0.820267 (Simulation time: 0 hr 18 min 34 sec) 

ChampSim completed all CPUs

Region of Interest Statistics

CPU 0 cumulative IPC: 0.820267 instructions: 50000003 cycles: 60955776

SHEET
IPC : 0.820267

L1D TOTAL     ACCESS:   21899439  HIT:   17319407  MISS:    4580032
L1D LOAD      ACCESS:    8759567  HIT:    6481295  MISS:    2278272
L1D RFO       ACCESS:    4592133  HIT:    4487445  MISS:     104688
L1D PREFETCH  ACCESS:    8547739  HIT:    6350667  MISS:    2197072
L1D WRITEBACK ACCESS:          0  HIT:          0  MISS:          0
L1D PREFETCH  REQUESTED:    8793554  ISSUED:    8695259  USEFUL:     108397  USELESS:    2088674
L1D AVERAGE MISS LATENCY: 20.3511 cycles
L1D

SHEET
L1D-total_access : 21899439
L1D-total_hit : 17319407
L1D-total_miss : 4580032
L1D-load_access : 8759567
L1D-load_hit : 6481295
L1D-load_miss : 2278272
L1D-rfo_access : 4592133
L1D-rfo_hit : 4487445
L1D-rfo_miss : 104688
L1D-prefetch_access : 8547739
L1D-prefetch_hit : 6350667
L1D-prefetch_miss : 2197072
L1D-writeback_access : 0
L1D-writeback_hit : 0
L1D-writeback_miss : 0
L1D-prefetch_requested : 8793554
L1D-prefetch_issued : 8695259
L1D-prefetch_useful : 108397
L1D-prefetch_useless : 2088674
L1D-Avg_miss_latency : 20.3511

L1I TOTAL     ACCESS:   17450896  HIT:   14521996  MISS:    2928900
L1I LOAD      ACCESS:   10725986  HIT:   10223401  MISS:     502585
L1I RFO       ACCESS:          0  HIT:          0  MISS:          0
L1I PREFETCH  ACCESS:    6724910  HIT:    4298595  MISS:    2426315
L1I WRITEBACK ACCESS:          0  HIT:          0  MISS:          0
L1I PREFETCH  REQUESTED:    7489978  ISSUED:    7053809  USEFUL:    1145073  USELESS:    1281204
L1I AVERAGE MISS LATENCY: 22.8713 cycles
L1I

SHEET
L1I-total_access : 17450896
L1I-total_hit : 14521996
L1I-total_miss : 2928900
L1I-load_access : 10725986
L1I-load_hit : 10223401
L1I-load_miss : 502585
L1I-rfo_access : 0
L1I-rfo_hit : 0
L1I-rfo_miss : 0
L1I-prefetch_access : 6724910
L1I-prefetch_hit : 4298595
L1I-prefetch_miss : 2426315
L1I-writeback_access : 0
L1I-writeback_hit : 0
L1I-writeback_miss : 0
L1I-prefetch_requested : 7489978
L1I-prefetch_issued : 7053809
L1I-prefetch_useful : 1145073
L1I-prefetch_useless : 1281204
L1I-Avg_miss_latency : 22.8713

L2C TOTAL     ACCESS:    9600337  HIT:    8546164  MISS:    1054173
L2C LOAD      ACCESS:    2677628  HIT:    2358552  MISS:     319076
L2C RFO       ACCESS:     103613  HIT:      63670  MISS:      39943
L2C PREFETCH  ACCESS:    6562208  HIT:    5868556  MISS:     693652
L2C WRITEBACK ACCESS:     256888  HIT:     255386  MISS:       1502
L2C PREFETCH  REQUESTED:    9013083  ISSUED:    9003808  USEFUL:      69940  USELESS:     622184
L2C AVERAGE MISS LATENCY: 45.8321 cycles
L2C

SHEET
L2C-total_access : 9600337
L2C-total_hit : 8546164
L2C-total_miss : 1054173
L2C-load_access : 2677628
L2C-load_hit : 2358552
L2C-load_miss : 319076
L2C-rfo_access : 103613
L2C-rfo_hit : 63670
L2C-rfo_miss : 39943
L2C-prefetch_access : 6562208
L2C-prefetch_hit : 5868556
L2C-prefetch_miss : 693652
L2C-writeback_access : 256888
L2C-writeback_hit : 255386
L2C-writeback_miss : 1502
L2C-prefetch_requested : 9013083
L2C-prefetch_issued : 9003808
L2C-prefetch_useful : 69940
L2C-prefetch_useless : 622184
L2C-Avg_miss_latency : 45.8321

LLC TOTAL     ACCESS:    2772679  HIT:    2638658  MISS:     134021
LLC LOAD      ACCESS:     318261  HIT:     294929  MISS:      23332
LLC RFO       ACCESS:      39939  HIT:      31158  MISS:       8781
LLC PREFETCH  ACCESS:    2275259  HIT:    2173560  MISS:     101699
LLC WRITEBACK ACCESS:     139220  HIT:     139011  MISS:        209
LLC PREFETCH  REQUESTED:          0  ISSUED:          0  USEFUL:      13365  USELESS:      85667
LLC AVERAGE MISS LATENCY: 169.928 cycles
LLC

SHEET
LLC-total_access : 2772679
LLC-total_hit : 2638658
LLC-total_miss : 134021
LLC-load_access : 318261
LLC-load_hit : 294929
LLC-load_miss : 23332
LLC-rfo_access : 39939
LLC-rfo_hit : 31158
LLC-rfo_miss : 8781
LLC-prefetch_access : 2275259
LLC-prefetch_hit : 2173560
LLC-prefetch_miss : 101699
LLC-writeback_access : 139220
LLC-writeback_hit : 139011
LLC-writeback_miss : 209
LLC-prefetch_requested : 0
LLC-prefetch_issued : 0
LLC-prefetch_useful : 13365
LLC-prefetch_useless : 85667
LLC-Avg_miss_latency : 169.928

Major fault: 0 Minor fault: 6351



Printing Logs
statHeadFound: 501829
statHeadMissing: 979205
statStreamBufferHit: 12105207
statPrefetchEntryFound: 4243766
statCompactorMatch: 11658587
statStreamTrackerLookup: 13586241
statRecord: 1927654
statGetPointer: 1481034
statEnqueuePrefetch: 14438222
statPrefetchQueueIsFull: 122322
StreamBufferHitRate: 0.89099
Regions' size: 4326
next_region_correct: 1608031
next_region_wrong: 315279
next_region_correct_prediction: 0.836075
statStreamBufferLookups: 978209352
statL1iLookups: 115505776
statCompactorLookups: 489104676
morteza: start

SHEET
mana_table_access_counter : 6293724
hobp_table_access_counter : 18000854
sab_access_counter : 16348973
srq_access_counter : 13195473

morteza: end
CPU 0 L1D next line prefetcher final stats

DRAM Statistics
 CHANNEL 0
 RQ ROW_BUFFER_HIT:      25888  ROW_BUFFER_MISS:     107916
 DBUS_CONGESTED:      59481
 WQ ROW_BUFFER_HIT:       8882  ROW_BUFFER_MISS:      38603  FULL:          0

 AVG_CONGESTED_CYCLE: 5

CPU 0 Branch Prediction Accuracy: 99.4713% MPKI: 1.11484 Average ROB Occupancy at Mispredict: 99.1802

Branch types
NOT_BRANCH: 39456615 78.9132%
BRANCH_DIRECT_JUMP: 445350 0.8907%
BRANCH_INDIRECT: 131149 0.262298%
BRANCH_CONDITIONAL: 8130196 16.2604%
BRANCH_DIRECT_CALL: 732485 1.46497%
BRANCH_INDIRECT_CALL: 172369 0.344738%
BRANCH_RETURN: 931558 1.86312%
BRANCH_OTHER: 0 0%

