Initialize SIGNATURE TABLE
ST_SET: 1
ST_WAY: 256
ST_TAG_BIT: 16
ST_TAG_MASK: ffff

Initialize PATTERN TABLE
PT_SET: 512
PT_WAY: 4
SIG_DELTA_BIT: 7
C_SIG_BIT: 4
C_DELTA_BIT: 4

Initialize PREFETCH FILTER
FILTER_SET: 1024
MANA initialize 
tds: 2 tdm: 2
size MANA SINGLE: 15.5 KB
size MANA NULTIPLE: 0 KB
size HOBPT: 0.703125 KB
size SRQ: 0.14502 KB
size SABs: 0.290039 KB
size prefetch queue: 0.453125 KB
total: 17.0913 KB

*** ChampSim Multicore Out-of-Order Simulator ***

Warmup Instructions: 50000000
Simulation Instructions: 50000000
Number of CPUs: 1
LLC sets: 2048
LLC ways: 16
Off-chip DRAM Size: 4096 MB Channels: 1 Width: 64-bit Data Rate: 3200 MT/s

CPU 0 runs /home/mbaradaran/ChampSim/dpc3_traces/server_013.champsimtrace.xz
CPU 0 L1D next line prefetcher
Heartbeat CPU 0 instructions: 10000000 cycles: 3225403 heartbeat IPC: 3.10039 cumulative IPC: 3.10039 (Simulation time: 0 hr 1 min 40 sec) 
Heartbeat CPU 0 instructions: 20000001 cycles: 6441094 heartbeat IPC: 3.10975 cumulative IPC: 3.10506 (Simulation time: 0 hr 3 min 18 sec) 
Heartbeat CPU 0 instructions: 30000002 cycles: 9660340 heartbeat IPC: 3.10632 cumulative IPC: 3.10548 (Simulation time: 0 hr 4 min 52 sec) 
Heartbeat CPU 0 instructions: 40000002 cycles: 12875060 heartbeat IPC: 3.11069 cumulative IPC: 3.10678 (Simulation time: 0 hr 6 min 36 sec) 
Heartbeat CPU 0 instructions: 50000000 cycles: 16090367 heartbeat IPC: 3.11012 cumulative IPC: 3.10745 (Simulation time: 0 hr 8 min 21 sec) 

Warmup complete CPU 0 instructions: 50000004 cycles: 16090368 (Simulation time: 0 hr 8 min 21 sec) 

Heartbeat CPU 0 instructions: 60000002 cycles: 24370565 heartbeat IPC: 1.2077 cumulative IPC: 1.2077 (Simulation time: 0 hr 9 min 55 sec) 
Heartbeat CPU 0 instructions: 70000003 cycles: 32899870 heartbeat IPC: 1.17243 cumulative IPC: 1.1898 (Simulation time: 0 hr 11 min 29 sec) 
Heartbeat CPU 0 instructions: 80000003 cycles: 40836678 heartbeat IPC: 1.25995 cumulative IPC: 1.2123 (Simulation time: 0 hr 13 min 3 sec) 
Heartbeat CPU 0 instructions: 90000003 cycles: 48984006 heartbeat IPC: 1.2274 cumulative IPC: 1.21604 (Simulation time: 0 hr 14 min 34 sec) 
Heartbeat CPU 0 instructions: 100000003 cycles: 57093183 heartbeat IPC: 1.23317 cumulative IPC: 1.21943 (Simulation time: 0 hr 16 min 7 sec) 
Finished CPU 0 instructions: 50000003 cycles: 41002816 cumulative IPC: 1.21943 (Simulation time: 0 hr 16 min 7 sec) 

ChampSim completed all CPUs

Region of Interest Statistics

CPU 0 cumulative IPC: 1.21943 instructions: 50000003 cycles: 41002816

SHEET
IPC : 1.21943

L1D TOTAL     ACCESS:   17684826  HIT:   16617742  MISS:    1067084
L1D LOAD      ACCESS:    6490623  HIT:    5991828  MISS:     498795
L1D RFO       ACCESS:    4943100  HIT:    4862701  MISS:      80399
L1D PREFETCH  ACCESS:    6251103  HIT:    5763213  MISS:     487890
L1D WRITEBACK ACCESS:          0  HIT:          0  MISS:          0
L1D PREFETCH  REQUESTED:    6526922  ISSUED:    6430029  USEFUL:     136051  USELESS:     351841
L1D AVERAGE MISS LATENCY: 42.647 cycles
L1D

SHEET
L1D-total_access : 17684826
L1D-total_hit : 16617742
L1D-total_miss : 1067084
L1D-load_access : 6490623
L1D-load_hit : 5991828
L1D-load_miss : 498795
L1D-rfo_access : 4943100
L1D-rfo_hit : 4862701
L1D-rfo_miss : 80399
L1D-prefetch_access : 6251103
L1D-prefetch_hit : 5763213
L1D-prefetch_miss : 487890
L1D-writeback_access : 0
L1D-writeback_hit : 0
L1D-writeback_miss : 0
L1D-prefetch_requested : 6526922
L1D-prefetch_issued : 6430029
L1D-prefetch_useful : 136051
L1D-prefetch_useless : 351841
L1D-Avg_miss_latency : 42.647

L1I TOTAL     ACCESS:   15782001  HIT:   12159935  MISS:    3622066
L1I LOAD      ACCESS:    8655664  HIT:    8089555  MISS:     566109
L1I RFO       ACCESS:          0  HIT:          0  MISS:          0
L1I PREFETCH  ACCESS:    7126337  HIT:    4070380  MISS:    3055957
L1I WRITEBACK ACCESS:          0  HIT:          0  MISS:          0
L1I PREFETCH  REQUESTED:    8195440  ISSUED:    7564283  USEFUL:    1514388  USELESS:    1541557
L1I AVERAGE MISS LATENCY: 23.5375 cycles
L1I

SHEET
L1I-total_access : 15782001
L1I-total_hit : 12159935
L1I-total_miss : 3622066
L1I-load_access : 8655664
L1I-load_hit : 8089555
L1I-load_miss : 566109
L1I-rfo_access : 0
L1I-rfo_hit : 0
L1I-rfo_miss : 0
L1I-prefetch_access : 7126337
L1I-prefetch_hit : 4070380
L1I-prefetch_miss : 3055957
L1I-writeback_access : 0
L1I-writeback_hit : 0
L1I-writeback_miss : 0
L1I-prefetch_requested : 8195440
L1I-prefetch_issued : 7564283
L1I-prefetch_useful : 1514388
L1I-prefetch_useless : 1541557
L1I-Avg_miss_latency : 23.5375

L2C TOTAL     ACCESS:    6079900  HIT:    4698386  MISS:    1381514
L2C LOAD      ACCESS:     904708  HIT:     493610  MISS:     411098
L2C RFO       ACCESS:      79003  HIT:      29892  MISS:      49111
L2C PREFETCH  ACCESS:    4820360  HIT:    3901832  MISS:     918528
L2C WRITEBACK ACCESS:     275829  HIT:     273052  MISS:       2777
L2C PREFETCH  REQUESTED:    5847257  ISSUED:    5835616  USEFUL:      91787  USELESS:     825842
L2C AVERAGE MISS LATENCY: 46.1893 cycles
L2C

SHEET
L2C-total_access : 6079900
L2C-total_hit : 4698386
L2C-total_miss : 1381514
L2C-load_access : 904708
L2C-load_hit : 493610
L2C-load_miss : 411098
L2C-rfo_access : 79003
L2C-rfo_hit : 29892
L2C-rfo_miss : 49111
L2C-prefetch_access : 4820360
L2C-prefetch_hit : 3901832
L2C-prefetch_miss : 918528
L2C-writeback_access : 275829
L2C-writeback_hit : 273052
L2C-writeback_miss : 2777
L2C-prefetch_requested : 5847257
L2C-prefetch_issued : 5835616
L2C-prefetch_useful : 91787
L2C-prefetch_useless : 825842
L2C-Avg_miss_latency : 46.1893

LLC TOTAL     ACCESS:    3009351  HIT:    2834599  MISS:     174752
LLC LOAD      ACCESS:     410019  HIT:     381404  MISS:      28615
LLC RFO       ACCESS:      49104  HIT:      38758  MISS:      10346
LLC PREFETCH  ACCESS:    2373268  HIT:    2237695  MISS:     135573
LLC WRITEBACK ACCESS:     176960  HIT:     176742  MISS:        218
LLC PREFETCH  REQUESTED:          0  ISSUED:          0  USEFUL:      15549  USELESS:     118020
LLC AVERAGE MISS LATENCY: 172.154 cycles
LLC

SHEET
LLC-total_access : 3009351
LLC-total_hit : 2834599
LLC-total_miss : 174752
LLC-load_access : 410019
LLC-load_hit : 381404
LLC-load_miss : 28615
LLC-rfo_access : 49104
LLC-rfo_hit : 38758
LLC-rfo_miss : 10346
LLC-prefetch_access : 2373268
LLC-prefetch_hit : 2237695
LLC-prefetch_miss : 135573
LLC-writeback_access : 176960
LLC-writeback_hit : 176742
LLC-writeback_miss : 218
LLC-prefetch_requested : 0
LLC-prefetch_issued : 0
LLC-prefetch_useful : 15549
LLC-prefetch_useless : 118020
LLC-Avg_miss_latency : 172.154

Major fault: 0 Minor fault: 6200



Printing Logs
statHeadFound: 502678
statHeadMissing: 776484
statStreamBufferHit: 10783200
statPrefetchEntryFound: 4138716
statCompactorMatch: 10201408
statStreamTrackerLookup: 12062362
statRecord: 1860954
statGetPointer: 1279162
statEnqueuePrefetch: 14873821
statPrefetchQueueIsFull: 127276
StreamBufferHitRate: 0.893954
Regions' size: 3984
next_region_correct: 1518845
next_region_wrong: 338107
next_region_correct_prediction: 0.817924
statStreamBufferLookups: 868490064
statL1iLookups: 118990568
statCompactorLookups: 434245032
morteza: start

SHEET
mana_table_access_counter : 6126928
hobp_table_access_counter : 16826471
sab_access_counter : 14921916
srq_access_counter : 12573491

morteza: end
CPU 0 L1D next line prefetcher final stats

DRAM Statistics
 CHANNEL 0
 RQ ROW_BUFFER_HIT:      28113  ROW_BUFFER_MISS:     146407
 DBUS_CONGESTED:      77346
 WQ ROW_BUFFER_HIT:      12240  ROW_BUFFER_MISS:      52586  FULL:          0

 AVG_CONGESTED_CYCLE: 5

CPU 0 Branch Prediction Accuracy: 99.4114% MPKI: 1.0933 Average ROB Occupancy at Mispredict: 99.1043

Branch types
NOT_BRANCH: 40713131 81.4263%
BRANCH_DIRECT_JUMP: 463699 0.927398%
BRANCH_INDIRECT: 146542 0.293084%
BRANCH_CONDITIONAL: 6981937 13.9639%
BRANCH_DIRECT_CALL: 665003 1.33001%
BRANCH_INDIRECT_CALL: 165150 0.3303%
BRANCH_RETURN: 864309 1.72862%
BRANCH_OTHER: 0 0%

