Initialize SIGNATURE TABLE
ST_SET: 1
ST_WAY: 256
ST_TAG_BIT: 16
ST_TAG_MASK: ffff

Initialize PATTERN TABLE
PT_SET: 512
PT_WAY: 4
SIG_DELTA_BIT: 7
C_SIG_BIT: 4
C_DELTA_BIT: 4

Initialize PREFETCH FILTER
FILTER_SET: 1024
MANA initialize 
tds: 2 tdm: 2
size MANA SINGLE: 15.5 KB
size MANA NULTIPLE: 0 KB
size HOBPT: 0.703125 KB
size SRQ: 0.14502 KB
size SABs: 0.290039 KB
size prefetch queue: 0.453125 KB
total: 17.0913 KB

*** ChampSim Multicore Out-of-Order Simulator ***

Warmup Instructions: 50000000
Simulation Instructions: 50000000
Number of CPUs: 1
LLC sets: 2048
LLC ways: 16
Off-chip DRAM Size: 4096 MB Channels: 1 Width: 64-bit Data Rate: 3200 MT/s

CPU 0 runs /home/mbaradaran/ChampSim/dpc3_traces/server_003.champsimtrace.xz
CPU 0 L1D next line prefetcher
Heartbeat CPU 0 instructions: 10000002 cycles: 3233746 heartbeat IPC: 3.09239 cumulative IPC: 3.09239 (Simulation time: 0 hr 1 min 37 sec) 
Heartbeat CPU 0 instructions: 20000000 cycles: 6561163 heartbeat IPC: 3.00533 cumulative IPC: 3.04824 (Simulation time: 0 hr 3 min 25 sec) 
Heartbeat CPU 0 instructions: 30000000 cycles: 9781617 heartbeat IPC: 3.10515 cumulative IPC: 3.06698 (Simulation time: 0 hr 5 min 18 sec) 
Heartbeat CPU 0 instructions: 40000001 cycles: 13206037 heartbeat IPC: 2.9202 cumulative IPC: 3.02892 (Simulation time: 0 hr 7 min 15 sec) 
Heartbeat CPU 0 instructions: 50000003 cycles: 16926941 heartbeat IPC: 2.68752 cumulative IPC: 2.95387 (Simulation time: 0 hr 9 min 11 sec) 

Warmup complete CPU 0 instructions: 50000003 cycles: 16926941 (Simulation time: 0 hr 9 min 11 sec) 

Heartbeat CPU 0 instructions: 60000000 cycles: 26449774 heartbeat IPC: 1.05011 cumulative IPC: 1.05011 (Simulation time: 0 hr 10 min 56 sec) 
Heartbeat CPU 0 instructions: 70000003 cycles: 35926800 heartbeat IPC: 1.05518 cumulative IPC: 1.05264 (Simulation time: 0 hr 12 min 27 sec) 
Heartbeat CPU 0 instructions: 80000000 cycles: 46745509 heartbeat IPC: 0.924324 cumulative IPC: 1.00608 (Simulation time: 0 hr 14 min 7 sec) 
Heartbeat CPU 0 instructions: 90000001 cycles: 57686323 heartbeat IPC: 0.914009 cumulative IPC: 0.981369 (Simulation time: 0 hr 15 min 47 sec) 
Heartbeat CPU 0 instructions: 100000001 cycles: 69231234 heartbeat IPC: 0.866183 cumulative IPC: 0.955944 (Simulation time: 0 hr 17 min 29 sec) 
Finished CPU 0 instructions: 50000002 cycles: 52304294 cumulative IPC: 0.955944 (Simulation time: 0 hr 17 min 29 sec) 

ChampSim completed all CPUs

Region of Interest Statistics

CPU 0 cumulative IPC: 0.955944 instructions: 50000002 cycles: 52304294

SHEET
IPC : 0.955944

L1D TOTAL     ACCESS:   20246317  HIT:   19105077  MISS:    1141240
L1D LOAD      ACCESS:    7971058  HIT:    7442357  MISS:     528701
L1D RFO       ACCESS:    4563475  HIT:    4446144  MISS:     117331
L1D PREFETCH  ACCESS:    7711784  HIT:    7216576  MISS:     495208
L1D WRITEBACK ACCESS:          0  HIT:          0  MISS:          0
L1D PREFETCH  REQUESTED:    8031687  ISSUED:    7939520  USEFUL:     156937  USELESS:     338230
L1D AVERAGE MISS LATENCY: 54.4712 cycles
L1D

SHEET
L1D-total_access : 20246317
L1D-total_hit : 19105077
L1D-total_miss : 1141240
L1D-load_access : 7971058
L1D-load_hit : 7442357
L1D-load_miss : 528701
L1D-rfo_access : 4563475
L1D-rfo_hit : 4446144
L1D-rfo_miss : 117331
L1D-prefetch_access : 7711784
L1D-prefetch_hit : 7216576
L1D-prefetch_miss : 495208
L1D-writeback_access : 0
L1D-writeback_hit : 0
L1D-writeback_miss : 0
L1D-prefetch_requested : 8031687
L1D-prefetch_issued : 7939520
L1D-prefetch_useful : 156937
L1D-prefetch_useless : 338230
L1D-Avg_miss_latency : 54.4712

L1I TOTAL     ACCESS:   16461422  HIT:   13853081  MISS:    2608341
L1I LOAD      ACCESS:    9336224  HIT:    8881986  MISS:     454238
L1I RFO       ACCESS:          0  HIT:          0  MISS:          0
L1I PREFETCH  ACCESS:    7125198  HIT:    4971095  MISS:    2154103
L1I WRITEBACK ACCESS:          0  HIT:          0  MISS:          0
L1I PREFETCH  REQUESTED:    7998367  ISSUED:    7624771  USEFUL:    1005070  USELESS:    1148925
L1I AVERAGE MISS LATENCY: 25.4592 cycles
L1I

SHEET
L1I-total_access : 16461422
L1I-total_hit : 13853081
L1I-total_miss : 2608341
L1I-load_access : 9336224
L1I-load_hit : 8881986
L1I-load_miss : 454238
L1I-rfo_access : 0
L1I-rfo_hit : 0
L1I-rfo_miss : 0
L1I-prefetch_access : 7125198
L1I-prefetch_hit : 4971095
L1I-prefetch_miss : 2154103
L1I-writeback_access : 0
L1I-writeback_hit : 0
L1I-writeback_miss : 0
L1I-prefetch_requested : 7998367
L1I-prefetch_issued : 7624771
L1I-prefetch_useful : 1005070
L1I-prefetch_useless : 1148925
L1I-Avg_miss_latency : 25.4592

L2C TOTAL     ACCESS:    5025593  HIT:    4021982  MISS:    1003611
L2C LOAD      ACCESS:     881636  HIT:     541818  MISS:     339818
L2C RFO       ACCESS:     114552  HIT:      39815  MISS:      74737
L2C PREFETCH  ACCESS:    3745135  HIT:    3157746  MISS:     587389
L2C WRITEBACK ACCESS:     284270  HIT:     282603  MISS:       1667
L2C PREFETCH  REQUESTED:    4111079  ISSUED:    4106297  USEFUL:      63258  USELESS:     522323
L2C AVERAGE MISS LATENCY: 75.8825 cycles
L2C

SHEET
L2C-total_access : 5025593
L2C-total_hit : 4021982
L2C-total_miss : 1003611
L2C-load_access : 881636
L2C-load_hit : 541818
L2C-load_miss : 339818
L2C-rfo_access : 114552
L2C-rfo_hit : 39815
L2C-rfo_miss : 74737
L2C-prefetch_access : 3745135
L2C-prefetch_hit : 3157746
L2C-prefetch_miss : 587389
L2C-writeback_access : 284270
L2C-writeback_hit : 282603
L2C-writeback_miss : 1667
L2C-prefetch_requested : 4111079
L2C-prefetch_issued : 4106297
L2C-prefetch_useful : 63258
L2C-prefetch_useless : 522323
L2C-Avg_miss_latency : 75.8825

LLC TOTAL     ACCESS:    2214271  HIT:    1839401  MISS:     374870
LLC LOAD      ACCESS:     338541  HIT:     253004  MISS:      85537
LLC RFO       ACCESS:      74736  HIT:      32671  MISS:      42065
LLC PREFETCH  ACCESS:    1634085  HIT:    1388222  MISS:     245863
LLC WRITEBACK ACCESS:     166909  HIT:     165504  MISS:       1405
LLC PREFETCH  REQUESTED:          0  ISSUED:          0  USEFUL:      43914  USELESS:     192362
LLC AVERAGE MISS LATENCY: 180.483 cycles
LLC

SHEET
LLC-total_access : 2214271
LLC-total_hit : 1839401
LLC-total_miss : 374870
LLC-load_access : 338541
LLC-load_hit : 253004
LLC-load_miss : 85537
LLC-rfo_access : 74736
LLC-rfo_hit : 32671
LLC-rfo_miss : 42065
LLC-prefetch_access : 1634085
LLC-prefetch_hit : 1388222
LLC-prefetch_miss : 245863
LLC-writeback_access : 166909
LLC-writeback_hit : 165504
LLC-writeback_miss : 1405
LLC-prefetch_requested : 0
LLC-prefetch_issued : 0
LLC-prefetch_useful : 43914
LLC-prefetch_useless : 192362
LLC-Avg_miss_latency : 180.483

Major fault: 0 Minor fault: 7768



Printing Logs
statHeadFound: 631801
statHeadMissing: 1221937
statStreamBufferHit: 11928564
statPrefetchEntryFound: 4813442
statCompactorMatch: 12221597
statStreamTrackerLookup: 13782302
statRecord: 1560705
statGetPointer: 1853738
statEnqueuePrefetch: 15643557
statPrefetchQueueIsFull: 108710
StreamBufferHitRate: 0.865499
Regions' size: 9220
next_region_correct: 1119327
next_region_wrong: 432140
next_region_correct_prediction: 0.721464
statStreamBufferLookups: 992325744
statL1iLookups: 125148456
statCompactorLookups: 496162872
morteza: start

SHEET
mana_table_access_counter : 6482839
hobp_table_access_counter : 18579939
sab_access_counter : 16742006
srq_access_counter : 12974381

morteza: end
CPU 0 L1D next line prefetcher final stats

DRAM Statistics
 CHANNEL 0
 RQ ROW_BUFFER_HIT:      81568  ROW_BUFFER_MISS:     291868
 DBUS_CONGESTED:     184125
 WQ ROW_BUFFER_HIT:      24587  ROW_BUFFER_MISS:      79612  FULL:          0

 AVG_CONGESTED_CYCLE: 5

CPU 0 Branch Prediction Accuracy: 95.439% MPKI: 9.02702 Average ROB Occupancy at Mispredict: 60.1696

Branch types
NOT_BRANCH: 40104086 80.2082%
BRANCH_DIRECT_JUMP: 497928 0.995856%
BRANCH_INDIRECT: 130587 0.261174%
BRANCH_CONDITIONAL: 7219017 14.438%
BRANCH_DIRECT_CALL: 625807 1.25161%
BRANCH_INDIRECT_CALL: 389787 0.779574%
BRANCH_RETURN: 1032747 2.06549%
BRANCH_OTHER: 0 0%

