Initialize SIGNATURE TABLE
ST_SET: 1
ST_WAY: 256
ST_TAG_BIT: 16
ST_TAG_MASK: ffff

Initialize PATTERN TABLE
PT_SET: 512
PT_WAY: 4
SIG_DELTA_BIT: 7
C_SIG_BIT: 4
C_DELTA_BIT: 4

Initialize PREFETCH FILTER
FILTER_SET: 1024
MANA initialize 
tds: 2 tdm: 2
size MANA SINGLE: 15.5 KB
size MANA NULTIPLE: 0 KB
size HOBPT: 0.703125 KB
size SRQ: 0.14502 KB
size SABs: 0.290039 KB
size prefetch queue: 0.453125 KB
total: 17.0913 KB

*** ChampSim Multicore Out-of-Order Simulator ***

Warmup Instructions: 50000000
Simulation Instructions: 50000000
Number of CPUs: 1
LLC sets: 2048
LLC ways: 16
Off-chip DRAM Size: 4096 MB Channels: 1 Width: 64-bit Data Rate: 3200 MT/s

CPU 0 runs /home/mbaradaran/ChampSim/dpc3_traces/server_036.champsimtrace.xz
CPU 0 L1D next line prefetcher
Heartbeat CPU 0 instructions: 10000000 cycles: 3458976 heartbeat IPC: 2.89103 cumulative IPC: 2.89103 (Simulation time: 0 hr 1 min 51 sec) 
Heartbeat CPU 0 instructions: 20000000 cycles: 6924728 heartbeat IPC: 2.88538 cumulative IPC: 2.8882 (Simulation time: 0 hr 3 min 51 sec) 
Heartbeat CPU 0 instructions: 30000003 cycles: 10433446 heartbeat IPC: 2.85004 cumulative IPC: 2.87537 (Simulation time: 0 hr 5 min 50 sec) 
Heartbeat CPU 0 instructions: 40000000 cycles: 13895908 heartbeat IPC: 2.88812 cumulative IPC: 2.87855 (Simulation time: 0 hr 7 min 45 sec) 
Heartbeat CPU 0 instructions: 50000002 cycles: 17357567 heartbeat IPC: 2.88879 cumulative IPC: 2.88059 (Simulation time: 0 hr 9 min 38 sec) 

Warmup complete CPU 0 instructions: 50000002 cycles: 17357567 (Simulation time: 0 hr 9 min 38 sec) 

Heartbeat CPU 0 instructions: 60000002 cycles: 23732686 heartbeat IPC: 1.5686 cumulative IPC: 1.5686 (Simulation time: 0 hr 11 min 0 sec) 
Heartbeat CPU 0 instructions: 70000001 cycles: 30047451 heartbeat IPC: 1.58359 cumulative IPC: 1.57606 (Simulation time: 0 hr 12 min 30 sec) 
Heartbeat CPU 0 instructions: 80000001 cycles: 36388224 heartbeat IPC: 1.57709 cumulative IPC: 1.5764 (Simulation time: 0 hr 13 min 59 sec) 
Heartbeat CPU 0 instructions: 90000002 cycles: 42698911 heartbeat IPC: 1.58461 cumulative IPC: 1.57845 (Simulation time: 0 hr 15 min 25 sec) 
Heartbeat CPU 0 instructions: 100000001 cycles: 49007002 heartbeat IPC: 1.58527 cumulative IPC: 1.57981 (Simulation time: 0 hr 16 min 49 sec) 
Finished CPU 0 instructions: 50000003 cycles: 31649436 cumulative IPC: 1.57981 (Simulation time: 0 hr 16 min 49 sec) 

ChampSim completed all CPUs

Region of Interest Statistics

CPU 0 cumulative IPC: 1.57981 instructions: 50000003 cycles: 31649436

SHEET
IPC : 1.57981

L1D TOTAL     ACCESS:   21725860  HIT:   21665718  MISS:      60142
L1D LOAD      ACCESS:    7264917  HIT:    7230017  MISS:      34900
L1D RFO       ACCESS:    7363559  HIT:    7356317  MISS:       7242
L1D PREFETCH  ACCESS:    7097384  HIT:    7079384  MISS:      18000
L1D WRITEBACK ACCESS:          0  HIT:          0  MISS:          0
L1D PREFETCH  REQUESTED:    7266674  ISSUED:    7128278  USEFUL:       5426  USELESS:      12575
L1D AVERAGE MISS LATENCY: 17.7721 cycles
L1D

SHEET
L1D-total_access : 21725860
L1D-total_hit : 21665718
L1D-total_miss : 60142
L1D-load_access : 7264917
L1D-load_hit : 7230017
L1D-load_miss : 34900
L1D-rfo_access : 7363559
L1D-rfo_hit : 7356317
L1D-rfo_miss : 7242
L1D-prefetch_access : 7097384
L1D-prefetch_hit : 7079384
L1D-prefetch_miss : 18000
L1D-writeback_access : 0
L1D-writeback_hit : 0
L1D-writeback_miss : 0
L1D-prefetch_requested : 7266674
L1D-prefetch_issued : 7128278
L1D-prefetch_useful : 5426
L1D-prefetch_useless : 12575
L1D-Avg_miss_latency : 17.7721

L1I TOTAL     ACCESS:   17823674  HIT:   11553701  MISS:    6269973
L1I LOAD      ACCESS:    9023903  HIT:    8292373  MISS:     731530
L1I RFO       ACCESS:          0  HIT:          0  MISS:          0
L1I PREFETCH  ACCESS:    8799771  HIT:    3261328  MISS:    5538443
L1I WRITEBACK ACCESS:          0  HIT:          0  MISS:          0
L1I PREFETCH  REQUESTED:    9668063  ISSUED:    9605719  USEFUL:    3711940  USELESS:    1826506
L1I AVERAGE MISS LATENCY: 14.3489 cycles
L1I

SHEET
L1I-total_access : 17823674
L1I-total_hit : 11553701
L1I-total_miss : 6269973
L1I-load_access : 9023903
L1I-load_hit : 8292373
L1I-load_miss : 731530
L1I-rfo_access : 0
L1I-rfo_hit : 0
L1I-rfo_miss : 0
L1I-prefetch_access : 8799771
L1I-prefetch_hit : 3261328
L1I-prefetch_miss : 5538443
L1I-writeback_access : 0
L1I-writeback_hit : 0
L1I-writeback_miss : 0
L1I-prefetch_requested : 9668063
L1I-prefetch_issued : 9605719
L1I-prefetch_useful : 3711940
L1I-prefetch_useless : 1826506
L1I-Avg_miss_latency : 14.3489

L2C TOTAL     ACCESS:    8681338  HIT:    8678886  MISS:       2452
L2C LOAD      ACCESS:     545691  HIT:     545164  MISS:        527
L2C RFO       ACCESS:       7233  HIT:       7179  MISS:         54
L2C PREFETCH  ACCESS:    8112799  HIT:    8110965  MISS:       1834
L2C WRITEBACK ACCESS:      15615  HIT:      15578  MISS:         37
L2C PREFETCH  REQUESTED:    8347599  ISSUED:    8337050  USEFUL:        192  USELESS:       1035
L2C AVERAGE MISS LATENCY: 148.823 cycles
L2C

SHEET
L2C-total_access : 8681338
L2C-total_hit : 8678886
L2C-total_miss : 2452
L2C-load_access : 545691
L2C-load_hit : 545164
L2C-load_miss : 527
L2C-rfo_access : 7233
L2C-rfo_hit : 7179
L2C-rfo_miss : 54
L2C-prefetch_access : 8112799
L2C-prefetch_hit : 8110965
L2C-prefetch_miss : 1834
L2C-writeback_access : 15615
L2C-writeback_hit : 15578
L2C-writeback_miss : 37
L2C-prefetch_requested : 8347599
L2C-prefetch_issued : 8337050
L2C-prefetch_useful : 192
L2C-prefetch_useless : 1035
L2C-Avg_miss_latency : 148.823

LLC TOTAL     ACCESS:    1279567  HIT:    1276671  MISS:       2896
LLC LOAD      ACCESS:        522  HIT:        181  MISS:        341
LLC RFO       ACCESS:         54  HIT:         25  MISS:         29
LLC PREFETCH  ACCESS:    1277927  HIT:    1275406  MISS:       2521
LLC WRITEBACK ACCESS:       1064  HIT:       1059  MISS:          5
LLC PREFETCH  REQUESTED:          0  ISSUED:          0  USEFUL:        103  USELESS:        628
LLC AVERAGE MISS LATENCY: 274.093 cycles
LLC

SHEET
LLC-total_access : 1279567
LLC-total_hit : 1276671
LLC-total_miss : 2896
LLC-load_access : 522
LLC-load_hit : 181
LLC-load_miss : 341
LLC-rfo_access : 54
LLC-rfo_hit : 25
LLC-rfo_miss : 29
LLC-prefetch_access : 1277927
LLC-prefetch_hit : 1275406
LLC-prefetch_miss : 2521
LLC-writeback_access : 1064
LLC-writeback_hit : 1059
LLC-writeback_miss : 5
LLC-prefetch_requested : 0
LLC-prefetch_issued : 0
LLC-prefetch_useful : 103
LLC-prefetch_useless : 628
LLC-Avg_miss_latency : 274.093

Major fault: 0 Minor fault: 1926



Printing Logs
statHeadFound: 627268
statHeadMissing: 467783
statStreamBufferHit: 12679504
statPrefetchEntryFound: 5824123
statCompactorMatch: 10796521
statStreamTrackerLookup: 13774555
statRecord: 2978034
statGetPointer: 1095051
statEnqueuePrefetch: 18929608
statPrefetchQueueIsFull: 928
StreamBufferHitRate: 0.920502
Regions' size: 2788
next_region_correct: 2322107
next_region_wrong: 653121
next_region_correct_prediction: 0.78048
statStreamBufferLookups: 991767960
statL1iLookups: 151436864
statCompactorLookups: 495883980
morteza: start

SHEET
mana_table_access_counter : 8803067
hobp_table_access_counter : 22117355
sab_access_counter : 18503627
srq_access_counter : 16125349

morteza: end
CPU 0 L1D next line prefetcher final stats

DRAM Statistics
 CHANNEL 0
 RQ ROW_BUFFER_HIT:        510  ROW_BUFFER_MISS:       2381
 DBUS_CONGESTED:       1907
 WQ ROW_BUFFER_HIT:        301  ROW_BUFFER_MISS:       1652  FULL:          0

 AVG_CONGESTED_CYCLE: 6

CPU 0 Branch Prediction Accuracy: 99.8717% MPKI: 0.21174 Average ROB Occupancy at Mispredict: 181.666

Branch types
NOT_BRANCH: 41748435 83.4969%
BRANCH_DIRECT_JUMP: 468564 0.937128%
BRANCH_INDIRECT: 0 0%
BRANCH_CONDITIONAL: 5599754 11.1995%
BRANCH_DIRECT_CALL: 885105 1.77021%
BRANCH_INDIRECT_CALL: 206338 0.412676%
BRANCH_RETURN: 1091467 2.18293%
BRANCH_OTHER: 0 0%

