Initialize SIGNATURE TABLE
ST_SET: 1
ST_WAY: 256
ST_TAG_BIT: 16
ST_TAG_MASK: ffff

Initialize PATTERN TABLE
PT_SET: 512
PT_WAY: 4
SIG_DELTA_BIT: 7
C_SIG_BIT: 4
C_DELTA_BIT: 4

Initialize PREFETCH FILTER
FILTER_SET: 1024
MANA initialize 
tds: 2 tdm: 2
size MANA SINGLE: 15.5 KB
size MANA NULTIPLE: 0 KB
size HOBPT: 0.703125 KB
size SRQ: 0.14502 KB
size SABs: 0.290039 KB
size prefetch queue: 0.453125 KB
total: 17.0913 KB

*** ChampSim Multicore Out-of-Order Simulator ***

Warmup Instructions: 50000000
Simulation Instructions: 50000000
Number of CPUs: 1
LLC sets: 2048
LLC ways: 16
Off-chip DRAM Size: 4096 MB Channels: 1 Width: 64-bit Data Rate: 3200 MT/s

CPU 0 runs /home/mbaradaran/ChampSim/dpc3_traces/server_032.champsimtrace.xz
CPU 0 L1D next line prefetcher
Heartbeat CPU 0 instructions: 10000002 cycles: 3542321 heartbeat IPC: 2.82301 cumulative IPC: 2.82301 (Simulation time: 0 hr 2 min 4 sec) 
Heartbeat CPU 0 instructions: 20000003 cycles: 7086080 heartbeat IPC: 2.82186 cumulative IPC: 2.82244 (Simulation time: 0 hr 4 min 2 sec) 
Heartbeat CPU 0 instructions: 30000000 cycles: 10629056 heartbeat IPC: 2.82249 cumulative IPC: 2.82245 (Simulation time: 0 hr 6 min 5 sec) 
Heartbeat CPU 0 instructions: 40000003 cycles: 14172685 heartbeat IPC: 2.82197 cumulative IPC: 2.82233 (Simulation time: 0 hr 8 min 7 sec) 
Heartbeat CPU 0 instructions: 50000000 cycles: 17715112 heartbeat IPC: 2.82292 cumulative IPC: 2.82245 (Simulation time: 0 hr 10 min 8 sec) 

Warmup complete CPU 0 instructions: 50000004 cycles: 17715113 (Simulation time: 0 hr 10 min 8 sec) 

Heartbeat CPU 0 instructions: 60000002 cycles: 25083205 heartbeat IPC: 1.3572 cumulative IPC: 1.3572 (Simulation time: 0 hr 11 min 58 sec) 
Heartbeat CPU 0 instructions: 70000000 cycles: 32446210 heartbeat IPC: 1.35814 cumulative IPC: 1.35767 (Simulation time: 0 hr 13 min 43 sec) 
*** Reached end of trace for Core: 0 Repeating trace: /home/mbaradaran/ChampSim/dpc3_traces/server_032.champsimtrace.xz
Heartbeat CPU 0 instructions: 80000003 cycles: 39802630 heartbeat IPC: 1.35936 cumulative IPC: 1.35823 (Simulation time: 0 hr 15 min 37 sec) 
Heartbeat CPU 0 instructions: 90000002 cycles: 47135083 heartbeat IPC: 1.3638 cumulative IPC: 1.35962 (Simulation time: 0 hr 17 min 28 sec) 
Heartbeat CPU 0 instructions: 100000001 cycles: 54470780 heartbeat IPC: 1.3632 cumulative IPC: 1.36033 (Simulation time: 0 hr 19 min 18 sec) 
Finished CPU 0 instructions: 50000002 cycles: 36755671 cumulative IPC: 1.36033 (Simulation time: 0 hr 19 min 18 sec) 

ChampSim completed all CPUs

Region of Interest Statistics

CPU 0 cumulative IPC: 1.36033 instructions: 50000002 cycles: 36755671

SHEET
IPC : 1.36033

L1D TOTAL     ACCESS:   20615452  HIT:   18785819  MISS:    1829633
L1D LOAD      ACCESS:    7157739  HIT:    6365284  MISS:     792455
L1D RFO       ACCESS:    6571339  HIT:    6276836  MISS:     294503
L1D PREFETCH  ACCESS:    6886374  HIT:    6143699  MISS:     742675
L1D WRITEBACK ACCESS:          0  HIT:          0  MISS:          0
L1D PREFETCH  REQUESTED:    7207022  ISSUED:    7080971  USEFUL:     172216  USELESS:     570459
L1D AVERAGE MISS LATENCY: 19.3144 cycles
L1D

SHEET
L1D-total_access : 20615452
L1D-total_hit : 18785819
L1D-total_miss : 1829633
L1D-load_access : 7157739
L1D-load_hit : 6365284
L1D-load_miss : 792455
L1D-rfo_access : 6571339
L1D-rfo_hit : 6276836
L1D-rfo_miss : 294503
L1D-prefetch_access : 6886374
L1D-prefetch_hit : 6143699
L1D-prefetch_miss : 742675
L1D-writeback_access : 0
L1D-writeback_hit : 0
L1D-writeback_miss : 0
L1D-prefetch_requested : 7207022
L1D-prefetch_issued : 7080971
L1D-prefetch_useful : 172216
L1D-prefetch_useless : 570459
L1D-Avg_miss_latency : 19.3144

L1I TOTAL     ACCESS:   19732154  HIT:   12957503  MISS:    6774651
L1I LOAD      ACCESS:    9466649  HIT:    8299565  MISS:    1167084
L1I RFO       ACCESS:          0  HIT:          0  MISS:          0
L1I PREFETCH  ACCESS:   10265505  HIT:    4657938  MISS:    5607567
L1I WRITEBACK ACCESS:          0  HIT:          0  MISS:          0
L1I PREFETCH  REQUESTED:   11539152  ISSUED:   11285284  USEFUL:    2702452  USELESS:    2905111
L1I AVERAGE MISS LATENCY: 15.3202 cycles
L1I

SHEET
L1I-total_access : 19732154
L1I-total_hit : 12957503
L1I-total_miss : 6774651
L1I-load_access : 9466649
L1I-load_hit : 8299565
L1I-load_miss : 1167084
L1I-rfo_access : 0
L1I-rfo_hit : 0
L1I-rfo_miss : 0
L1I-prefetch_access : 10265505
L1I-prefetch_hit : 4657938
L1I-prefetch_miss : 5607567
L1I-writeback_access : 0
L1I-writeback_hit : 0
L1I-writeback_miss : 0
L1I-prefetch_requested : 11539152
L1I-prefetch_issued : 11285284
L1I-prefetch_useful : 2702452
L1I-prefetch_useless : 2905111
L1I-Avg_miss_latency : 15.3202

L2C TOTAL     ACCESS:   11598791  HIT:   11056031  MISS:     542760
L2C LOAD      ACCESS:    1671833  HIT:    1533654  MISS:     138179
L2C RFO       ACCESS:     292506  HIT:     242224  MISS:      50282
L2C PREFETCH  ACCESS:    8998293  HIT:    8655720  MISS:     342573
L2C WRITEBACK ACCESS:     636159  HIT:     624433  MISS:      11726
L2C PREFETCH  REQUESTED:    8996489  ISSUED:    8975909  USEFUL:      25122  USELESS:     317284
L2C AVERAGE MISS LATENCY: 32.3352 cycles
L2C

SHEET
L2C-total_access : 11598791
L2C-total_hit : 11056031
L2C-total_miss : 542760
L2C-load_access : 1671833
L2C-load_hit : 1533654
L2C-load_miss : 138179
L2C-rfo_access : 292506
L2C-rfo_hit : 242224
L2C-rfo_miss : 50282
L2C-prefetch_access : 8998293
L2C-prefetch_hit : 8655720
L2C-prefetch_miss : 342573
L2C-writeback_access : 636159
L2C-writeback_hit : 624433
L2C-writeback_miss : 11726
L2C-prefetch_requested : 8996489
L2C-prefetch_issued : 8975909
L2C-prefetch_useful : 25122
L2C-prefetch_useless : 317284
L2C-Avg_miss_latency : 32.3352

LLC TOTAL     ACCESS:    2901606  HIT:    2896948  MISS:       4658
LLC LOAD      ACCESS:     137876  HIT:     137491  MISS:        385
LLC RFO       ACCESS:      50282  HIT:      50282  MISS:          0
LLC PREFETCH  ACCESS:    2617729  HIT:    2613466  MISS:       4263
LLC WRITEBACK ACCESS:      95719  HIT:      95709  MISS:         10
LLC PREFETCH  REQUESTED:          0  ISSUED:          0  USEFUL:        359  USELESS:        836
LLC AVERAGE MISS LATENCY: 144.21 cycles
LLC

SHEET
LLC-total_access : 2901606
LLC-total_hit : 2896948
LLC-total_miss : 4658
LLC-load_access : 137876
LLC-load_hit : 137491
LLC-load_miss : 385
LLC-rfo_access : 50282
LLC-rfo_hit : 50282
LLC-rfo_miss : 0
LLC-prefetch_access : 2617729
LLC-prefetch_hit : 2613466
LLC-prefetch_miss : 4263
LLC-writeback_access : 95719
LLC-writeback_hit : 95709
LLC-writeback_miss : 10
LLC-prefetch_requested : 0
LLC-prefetch_issued : 0
LLC-prefetch_useful : 359
LLC-prefetch_useless : 836
LLC-Avg_miss_latency : 144.21

Major fault: 0 Minor fault: 1178



Printing Logs
statHeadFound: 1098798
statHeadMissing: 1117171
statStreamBufferHit: 12268401
statPrefetchEntryFound: 7631668
statCompactorMatch: 11545402
statStreamTrackerLookup: 14484370
statRecord: 2938968
statGetPointer: 2215969
statEnqueuePrefetch: 22435351
statPrefetchQueueIsFull: 132981
StreamBufferHitRate: 0.84701
Regions' size: 1365
next_region_correct: 2098394
next_region_wrong: 839191
next_region_correct_prediction: 0.714326
statStreamBufferLookups: 1042874640
statL1iLookups: 179482808
statCompactorLookups: 521437320
morteza: start

SHEET
mana_table_access_counter : 10703599
hobp_table_access_counter : 28384390
sab_access_counter : 19900069
srq_access_counter : 16060223

morteza: end
CPU 0 L1D next line prefetcher final stats

DRAM Statistics
 CHANNEL 0
 RQ ROW_BUFFER_HIT:       1379  ROW_BUFFER_MISS:       3269
 DBUS_CONGESTED:        759
 WQ ROW_BUFFER_HIT:          0  ROW_BUFFER_MISS:          6  FULL:          0

 AVG_CONGESTED_CYCLE: 5

CPU 0 Branch Prediction Accuracy: 99.8762% MPKI: 0.2296 Average ROB Occupancy at Mispredict: 148.436

Branch types
NOT_BRANCH: 40725948 81.4519%
BRANCH_DIRECT_JUMP: 508368 1.01674%
BRANCH_INDIRECT: 180051 0.360102%
BRANCH_CONDITIONAL: 5999627 11.9993%
BRANCH_DIRECT_CALL: 1086730 2.17346%
BRANCH_INDIRECT_CALL: 206109 0.412218%
BRANCH_RETURN: 1292826 2.58565%
BRANCH_OTHER: 0 0%

