Initialize SIGNATURE TABLE
ST_SET: 1
ST_WAY: 256
ST_TAG_BIT: 16
ST_TAG_MASK: ffff

Initialize PATTERN TABLE
PT_SET: 512
PT_WAY: 4
SIG_DELTA_BIT: 7
C_SIG_BIT: 4
C_DELTA_BIT: 4

Initialize PREFETCH FILTER
FILTER_SET: 1024
MANA initialize 
tds: 2 tdm: 2
size MANA SINGLE: 15.5 KB
size MANA NULTIPLE: 0 KB
size HOBPT: 0.703125 KB
size SRQ: 0.14502 KB
size SABs: 0.290039 KB
size prefetch queue: 0.453125 KB
total: 17.0913 KB

*** ChampSim Multicore Out-of-Order Simulator ***

Warmup Instructions: 50000000
Simulation Instructions: 50000000
Number of CPUs: 1
LLC sets: 2048
LLC ways: 16
Off-chip DRAM Size: 4096 MB Channels: 1 Width: 64-bit Data Rate: 3200 MT/s

CPU 0 runs /home/mbaradaran/ChampSim/dpc3_traces/server_011.champsimtrace.xz
CPU 0 L1D next line prefetcher
Heartbeat CPU 0 instructions: 10000002 cycles: 3218359 heartbeat IPC: 3.10717 cumulative IPC: 3.10717 (Simulation time: 0 hr 1 min 44 sec) 
Heartbeat CPU 0 instructions: 20000001 cycles: 6442931 heartbeat IPC: 3.10119 cumulative IPC: 3.10418 (Simulation time: 0 hr 3 min 34 sec) 
Heartbeat CPU 0 instructions: 30000001 cycles: 9709461 heartbeat IPC: 3.06135 cumulative IPC: 3.08977 (Simulation time: 0 hr 5 min 27 sec) 
Heartbeat CPU 0 instructions: 40000003 cycles: 12926270 heartbeat IPC: 3.10867 cumulative IPC: 3.09447 (Simulation time: 0 hr 7 min 18 sec) 
Heartbeat CPU 0 instructions: 50000000 cycles: 16147818 heartbeat IPC: 3.1041 cumulative IPC: 3.09639 (Simulation time: 0 hr 9 min 4 sec) 

Warmup complete CPU 0 instructions: 50000004 cycles: 16147819 (Simulation time: 0 hr 9 min 4 sec) 

Heartbeat CPU 0 instructions: 60000002 cycles: 24397511 heartbeat IPC: 1.21217 cumulative IPC: 1.21217 (Simulation time: 0 hr 10 min 43 sec) 
Heartbeat CPU 0 instructions: 70000001 cycles: 33085871 heartbeat IPC: 1.15097 cumulative IPC: 1.18077 (Simulation time: 0 hr 12 min 22 sec) 
Heartbeat CPU 0 instructions: 80000003 cycles: 42637630 heartbeat IPC: 1.04693 cumulative IPC: 1.13251 (Simulation time: 0 hr 13 min 50 sec) 
Heartbeat CPU 0 instructions: 90000001 cycles: 51124681 heartbeat IPC: 1.17827 cumulative IPC: 1.14361 (Simulation time: 0 hr 15 min 20 sec) 
Heartbeat CPU 0 instructions: 100000000 cycles: 59369252 heartbeat IPC: 1.21292 cumulative IPC: 1.15683 (Simulation time: 0 hr 17 min 0 sec) 
Finished CPU 0 instructions: 50000003 cycles: 43221445 cumulative IPC: 1.15683 (Simulation time: 0 hr 17 min 0 sec) 

ChampSim completed all CPUs

Region of Interest Statistics

CPU 0 cumulative IPC: 1.15683 instructions: 50000003 cycles: 43221445

SHEET
IPC : 1.15683

L1D TOTAL     ACCESS:   18537124  HIT:   17505295  MISS:    1031829
L1D LOAD      ACCESS:    6962921  HIT:    6483986  MISS:     478935
L1D RFO       ACCESS:    4846706  HIT:    4764601  MISS:      82105
L1D PREFETCH  ACCESS:    6727497  HIT:    6256708  MISS:     470789
L1D WRITEBACK ACCESS:          0  HIT:          0  MISS:          0
L1D PREFETCH  REQUESTED:    7000941  ISSUED:    6907972  USEFUL:     140334  USELESS:     330450
L1D AVERAGE MISS LATENCY: 41.2522 cycles
L1D

SHEET
L1D-total_access : 18537124
L1D-total_hit : 17505295
L1D-total_miss : 1031829
L1D-load_access : 6962921
L1D-load_hit : 6483986
L1D-load_miss : 478935
L1D-rfo_access : 4846706
L1D-rfo_hit : 4764601
L1D-rfo_miss : 82105
L1D-prefetch_access : 6727497
L1D-prefetch_hit : 6256708
L1D-prefetch_miss : 470789
L1D-writeback_access : 0
L1D-writeback_hit : 0
L1D-writeback_miss : 0
L1D-prefetch_requested : 7000941
L1D-prefetch_issued : 6907972
L1D-prefetch_useful : 140334
L1D-prefetch_useless : 330450
L1D-Avg_miss_latency : 41.2522

L1I TOTAL     ACCESS:   15889250  HIT:   12452879  MISS:    3436371
L1I LOAD      ACCESS:    8865159  HIT:    8360087  MISS:     505072
L1I RFO       ACCESS:          0  HIT:          0  MISS:          0
L1I PREFETCH  ACCESS:    7024091  HIT:    4092792  MISS:    2931299
L1I WRITEBACK ACCESS:          0  HIT:          0  MISS:          0
L1I PREFETCH  REQUESTED:    7935146  ISSUED:    7442236  USEFUL:    1531859  USELESS:    1399482
L1I AVERAGE MISS LATENCY: 22.9653 cycles
L1I

SHEET
L1I-total_access : 15889250
L1I-total_hit : 12452879
L1I-total_miss : 3436371
L1I-load_access : 8865159
L1I-load_hit : 8360087
L1I-load_miss : 505072
L1I-rfo_access : 0
L1I-rfo_hit : 0
L1I-rfo_miss : 0
L1I-prefetch_access : 7024091
L1I-prefetch_hit : 4092792
L1I-prefetch_miss : 2931299
L1I-writeback_access : 0
L1I-writeback_hit : 0
L1I-writeback_miss : 0
L1I-prefetch_requested : 7935146
L1I-prefetch_issued : 7442236
L1I-prefetch_useful : 1531859
L1I-prefetch_useless : 1399482
L1I-Avg_miss_latency : 22.9653

L2C TOTAL     ACCESS:    5855452  HIT:    4711290  MISS:    1144162
L2C LOAD      ACCESS:     864937  HIT:     512235  MISS:     352702
L2C RFO       ACCESS:      80260  HIT:      33600  MISS:      46660
L2C PREFETCH  ACCESS:    4642089  HIT:    3899307  MISS:     742782
L2C WRITEBACK ACCESS:     268166  HIT:     266148  MISS:       2018
L2C PREFETCH  REQUESTED:    5342782  ISSUED:    5331644  USEFUL:      81430  USELESS:     660623
L2C AVERAGE MISS LATENCY: 49.8679 cycles
L2C

SHEET
L2C-total_access : 5855452
L2C-total_hit : 4711290
L2C-total_miss : 1144162
L2C-load_access : 864937
L2C-load_hit : 512235
L2C-load_miss : 352702
L2C-rfo_access : 80260
L2C-rfo_hit : 33600
L2C-rfo_miss : 46660
L2C-prefetch_access : 4642089
L2C-prefetch_hit : 3899307
L2C-prefetch_miss : 742782
L2C-writeback_access : 268166
L2C-writeback_hit : 266148
L2C-writeback_miss : 2018
L2C-prefetch_requested : 5342782
L2C-prefetch_issued : 5331644
L2C-prefetch_useful : 81430
L2C-prefetch_useless : 660623
L2C-Avg_miss_latency : 49.8679

LLC TOTAL     ACCESS:    2637517  HIT:    2429491  MISS:     208026
LLC LOAD      ACCESS:     351676  HIT:     311883  MISS:      39793
LLC RFO       ACCESS:      46655  HIT:      32977  MISS:      13678
LLC PREFETCH  ACCESS:    2084611  HIT:    1930535  MISS:     154076
LLC WRITEBACK ACCESS:     154575  HIT:     154096  MISS:        479
LLC PREFETCH  REQUESTED:          0  ISSUED:          0  USEFUL:      23784  USELESS:     129241
LLC AVERAGE MISS LATENCY: 169.946 cycles
LLC

SHEET
LLC-total_access : 2637517
LLC-total_hit : 2429491
LLC-total_miss : 208026
LLC-load_access : 351676
LLC-load_hit : 311883
LLC-load_miss : 39793
LLC-rfo_access : 46655
LLC-rfo_hit : 32977
LLC-rfo_miss : 13678
LLC-prefetch_access : 2084611
LLC-prefetch_hit : 1930535
LLC-prefetch_miss : 154076
LLC-writeback_access : 154575
LLC-writeback_hit : 154096
LLC-writeback_miss : 479
LLC-prefetch_requested : 0
LLC-prefetch_issued : 0
LLC-prefetch_useful : 23784
LLC-prefetch_useless : 129241
LLC-Avg_miss_latency : 169.946

Major fault: 0 Minor fault: 6971



Printing Logs
statHeadFound: 510888
statHeadMissing: 980866
statStreamBufferHit: 10820502
statPrefetchEntryFound: 4162172
statCompactorMatch: 10501895
statStreamTrackerLookup: 12312256
statRecord: 1810361
statGetPointer: 1491754
statEnqueuePrefetch: 14719684
statPrefetchQueueIsFull: 131088
StreamBufferHitRate: 0.87884
Regions' size: 7787
next_region_correct: 1449652
next_region_wrong: 352904
next_region_correct_prediction: 0.80422
statStreamBufferLookups: 886482432
statL1iLookups: 117757472
statCompactorLookups: 443241216
morteza: start

SHEET
mana_table_access_counter : 6103603
hobp_table_access_counter : 17501736
sab_access_counter : 14982674
srq_access_counter : 12622981

morteza: end
CPU 0 L1D next line prefetcher final stats

DRAM Statistics
 CHANNEL 0
 RQ ROW_BUFFER_HIT:      38164  ROW_BUFFER_MISS:     169372
 DBUS_CONGESTED:      85958
 WQ ROW_BUFFER_HIT:      13592  ROW_BUFFER_MISS:      49396  FULL:          0

 AVG_CONGESTED_CYCLE: 5

CPU 0 Branch Prediction Accuracy: 97.5565% MPKI: 4.59006 Average ROB Occupancy at Mispredict: 52.6748

Branch types
NOT_BRANCH: 40607199 81.2144%
BRANCH_DIRECT_JUMP: 451601 0.903202%
BRANCH_INDIRECT: 151580 0.30316%
BRANCH_CONDITIONAL: 7041635 14.0833%
BRANCH_DIRECT_CALL: 647827 1.29565%
BRANCH_INDIRECT_CALL: 211373 0.422746%
BRANCH_RETURN: 888439 1.77688%
BRANCH_OTHER: 0 0%

