Initialize SIGNATURE TABLE
ST_SET: 1
ST_WAY: 256
ST_TAG_BIT: 16
ST_TAG_MASK: ffff

Initialize PATTERN TABLE
PT_SET: 512
PT_WAY: 4
SIG_DELTA_BIT: 7
C_SIG_BIT: 4
C_DELTA_BIT: 4

Initialize PREFETCH FILTER
FILTER_SET: 1024
MANA initialize 
tds: 2 tdm: 2
size MANA SINGLE: 15.5 KB
size MANA NULTIPLE: 0 KB
size HOBPT: 0.703125 KB
size SRQ: 0.14502 KB
size SABs: 0.290039 KB
size prefetch queue: 0.453125 KB
total: 17.0913 KB

*** ChampSim Multicore Out-of-Order Simulator ***

Warmup Instructions: 50000000
Simulation Instructions: 50000000
Number of CPUs: 1
LLC sets: 2048
LLC ways: 16
Off-chip DRAM Size: 4096 MB Channels: 1 Width: 64-bit Data Rate: 3200 MT/s

CPU 0 runs /home/mbaradaran/ChampSim/dpc3_traces/server_012.champsimtrace.xz
CPU 0 L1D next line prefetcher
Heartbeat CPU 0 instructions: 10000002 cycles: 3206442 heartbeat IPC: 3.11872 cumulative IPC: 3.11872 (Simulation time: 0 hr 1 min 41 sec) 
Heartbeat CPU 0 instructions: 20000002 cycles: 6416349 heartbeat IPC: 3.11536 cumulative IPC: 3.11704 (Simulation time: 0 hr 3 min 17 sec) 
Heartbeat CPU 0 instructions: 30000001 cycles: 9626109 heartbeat IPC: 3.1155 cumulative IPC: 3.11652 (Simulation time: 0 hr 5 min 10 sec) 
Heartbeat CPU 0 instructions: 40000000 cycles: 12843225 heartbeat IPC: 3.10837 cumulative IPC: 3.11448 (Simulation time: 0 hr 6 min 59 sec) 
Heartbeat CPU 0 instructions: 50000003 cycles: 16052601 heartbeat IPC: 3.11587 cumulative IPC: 3.11476 (Simulation time: 0 hr 8 min 45 sec) 

Warmup complete CPU 0 instructions: 50000003 cycles: 16052601 (Simulation time: 0 hr 8 min 45 sec) 

Heartbeat CPU 0 instructions: 60000002 cycles: 23830688 heartbeat IPC: 1.28566 cumulative IPC: 1.28566 (Simulation time: 0 hr 10 min 19 sec) 
Heartbeat CPU 0 instructions: 70000000 cycles: 31702344 heartbeat IPC: 1.27038 cumulative IPC: 1.27798 (Simulation time: 0 hr 11 min 51 sec) 
Heartbeat CPU 0 instructions: 80000003 cycles: 39609730 heartbeat IPC: 1.26464 cumulative IPC: 1.2735 (Simulation time: 0 hr 13 min 26 sec) 
Heartbeat CPU 0 instructions: 90000001 cycles: 47734040 heartbeat IPC: 1.23087 cumulative IPC: 1.26257 (Simulation time: 0 hr 15 min 6 sec) 
Heartbeat CPU 0 instructions: 100000002 cycles: 55743698 heartbeat IPC: 1.24849 cumulative IPC: 1.25973 (Simulation time: 0 hr 16 min 43 sec) 
Finished CPU 0 instructions: 50000001 cycles: 39691098 cumulative IPC: 1.25973 (Simulation time: 0 hr 16 min 43 sec) 

ChampSim completed all CPUs

Region of Interest Statistics

CPU 0 cumulative IPC: 1.25973 instructions: 50000001 cycles: 39691098

SHEET
IPC : 1.25973

L1D TOTAL     ACCESS:   17703076  HIT:   16659611  MISS:    1043465
L1D LOAD      ACCESS:    6484894  HIT:    5999842  MISS:     485052
L1D RFO       ACCESS:    4974231  HIT:    4892209  MISS:      82022
L1D PREFETCH  ACCESS:    6243951  HIT:    5767560  MISS:     476391
L1D WRITEBACK ACCESS:          0  HIT:          0  MISS:          0
L1D PREFETCH  REQUESTED:    6521086  ISSUED:    6419606  USEFUL:     135564  USELESS:     340847
L1D AVERAGE MISS LATENCY: 40.952 cycles
L1D

SHEET
L1D-total_access : 17703076
L1D-total_hit : 16659611
L1D-total_miss : 1043465
L1D-load_access : 6484894
L1D-load_hit : 5999842
L1D-load_miss : 485052
L1D-rfo_access : 4974231
L1D-rfo_hit : 4892209
L1D-rfo_miss : 82022
L1D-prefetch_access : 6243951
L1D-prefetch_hit : 5767560
L1D-prefetch_miss : 476391
L1D-writeback_access : 0
L1D-writeback_hit : 0
L1D-writeback_miss : 0
L1D-prefetch_requested : 6521086
L1D-prefetch_issued : 6419606
L1D-prefetch_useful : 135564
L1D-prefetch_useless : 340847
L1D-Avg_miss_latency : 40.952

L1I TOTAL     ACCESS:   15770499  HIT:   12290159  MISS:    3480340
L1I LOAD      ACCESS:    8721541  HIT:    8196151  MISS:     525390
L1I RFO       ACCESS:          0  HIT:          0  MISS:          0
L1I PREFETCH  ACCESS:    7048958  HIT:    4094008  MISS:    2954950
L1I WRITEBACK ACCESS:          0  HIT:          0  MISS:          0
L1I PREFETCH  REQUESTED:    7967070  ISSUED:    7463271  USEFUL:    1509218  USELESS:    1445767
L1I AVERAGE MISS LATENCY: 23.0291 cycles
L1I

SHEET
L1I-total_access : 15770499
L1I-total_hit : 12290159
L1I-total_miss : 3480340
L1I-load_access : 8721541
L1I-load_hit : 8196151
L1I-load_miss : 525390
L1I-rfo_access : 0
L1I-rfo_hit : 0
L1I-rfo_miss : 0
L1I-prefetch_access : 7048958
L1I-prefetch_hit : 4094008
L1I-prefetch_miss : 2954950
L1I-writeback_access : 0
L1I-writeback_hit : 0
L1I-writeback_miss : 0
L1I-prefetch_requested : 7967070
L1I-prefetch_issued : 7463271
L1I-prefetch_useful : 1509218
L1I-prefetch_useless : 1445767
L1I-Avg_miss_latency : 23.0291

L2C TOTAL     ACCESS:    5881635  HIT:    4585492  MISS:    1296143
L2C LOAD      ACCESS:     875823  HIT:     486107  MISS:     389716
L2C RFO       ACCESS:      80736  HIT:      30460  MISS:      50276
L2C PREFETCH  ACCESS:    4649509  HIT:    3795193  MISS:     854316
L2C WRITEBACK ACCESS:     275567  HIT:     273732  MISS:       1835
L2C PREFETCH  REQUESTED:    5474016  ISSUED:    5463532  USEFUL:      90111  USELESS:     763291
L2C AVERAGE MISS LATENCY: 44.9267 cycles
L2C

SHEET
L2C-total_access : 5881635
L2C-total_hit : 4585492
L2C-total_miss : 1296143
L2C-load_access : 875823
L2C-load_hit : 486107
L2C-load_miss : 389716
L2C-rfo_access : 80736
L2C-rfo_hit : 30460
L2C-rfo_miss : 50276
L2C-prefetch_access : 4649509
L2C-prefetch_hit : 3795193
L2C-prefetch_miss : 854316
L2C-writeback_access : 275567
L2C-writeback_hit : 273732
L2C-writeback_miss : 1835
L2C-prefetch_requested : 5474016
L2C-prefetch_issued : 5463532
L2C-prefetch_useful : 90111
L2C-prefetch_useless : 763291
L2C-Avg_miss_latency : 44.9267

LLC TOTAL     ACCESS:    2841783  HIT:    2684637  MISS:     157146
LLC LOAD      ACCESS:     388838  HIT:     364143  MISS:      24695
LLC RFO       ACCESS:      50272  HIT:      39732  MISS:      10540
LLC PREFETCH  ACCESS:    2233396  HIT:    2111762  MISS:     121634
LLC WRITEBACK ACCESS:     169277  HIT:     169000  MISS:        277
LLC PREFETCH  REQUESTED:          0  ISSUED:          0  USEFUL:      13675  USELESS:     106832
LLC AVERAGE MISS LATENCY: 169.705 cycles
LLC

SHEET
LLC-total_access : 2841783
LLC-total_hit : 2684637
LLC-total_miss : 157146
LLC-load_access : 388838
LLC-load_hit : 364143
LLC-load_miss : 24695
LLC-rfo_access : 50272
LLC-rfo_hit : 39732
LLC-rfo_miss : 10540
LLC-prefetch_access : 2233396
LLC-prefetch_hit : 2111762
LLC-prefetch_miss : 121634
LLC-writeback_access : 169277
LLC-writeback_hit : 169000
LLC-writeback_miss : 277
LLC-prefetch_requested : 0
LLC-prefetch_issued : 0
LLC-prefetch_useful : 13675
LLC-prefetch_useless : 106832
LLC-Avg_miss_latency : 169.705

Major fault: 0 Minor fault: 5596



Printing Logs
statHeadFound: 497195
statHeadMissing: 744283
statStreamBufferHit: 10905995
statPrefetchEntryFound: 4143164
statCompactorMatch: 10275413
statStreamTrackerLookup: 12147473
statRecord: 1872060
statGetPointer: 1241478
statEnqueuePrefetch: 14699683
statPrefetchQueueIsFull: 126830
StreamBufferHitRate: 0.897799
Regions' size: 3672
next_region_correct: 1535248
next_region_wrong: 333122
next_region_correct_prediction: 0.821704
statStreamBufferLookups: 874618056
statL1iLookups: 117597464
statCompactorLookups: 437309028
morteza: start

SHEET
mana_table_access_counter : 6142036
hobp_table_access_counter : 16724159
sab_access_counter : 15049159
srq_access_counter : 12632901

morteza: end
CPU 0 L1D next line prefetcher final stats

DRAM Statistics
 CHANNEL 0
 RQ ROW_BUFFER_HIT:      24592  ROW_BUFFER_MISS:     132271
 DBUS_CONGESTED:      67322
 WQ ROW_BUFFER_HIT:      11303  ROW_BUFFER_MISS:      49853  FULL:          0

 AVG_CONGESTED_CYCLE: 5

CPU 0 Branch Prediction Accuracy: 99.4607% MPKI: 1.00288 Average ROB Occupancy at Mispredict: 97.6202

Branch types
NOT_BRANCH: 40701017 81.402%
BRANCH_DIRECT_JUMP: 469809 0.939618%
BRANCH_INDIRECT: 153732 0.307464%
BRANCH_CONDITIONAL: 6944071 13.8881%
BRANCH_DIRECT_CALL: 679878 1.35976%
BRANCH_INDIRECT_CALL: 168745 0.33749%
BRANCH_RETURN: 882492 1.76498%
BRANCH_OTHER: 0 0%

