Initialize SIGNATURE TABLE
ST_SET: 1
ST_WAY: 256
ST_TAG_BIT: 16
ST_TAG_MASK: ffff

Initialize PATTERN TABLE
PT_SET: 512
PT_WAY: 4
SIG_DELTA_BIT: 7
C_SIG_BIT: 4
C_DELTA_BIT: 4

Initialize PREFETCH FILTER
FILTER_SET: 1024
MANA initialize 
tds: 2 tdm: 2
size MANA SINGLE: 15.5 KB
size MANA NULTIPLE: 0 KB
size HOBPT: 0.703125 KB
size SRQ: 0.14502 KB
size SABs: 0.290039 KB
size prefetch queue: 0.453125 KB
total: 17.0913 KB

*** ChampSim Multicore Out-of-Order Simulator ***

Warmup Instructions: 50000000
Simulation Instructions: 50000000
Number of CPUs: 1
LLC sets: 2048
LLC ways: 16
Off-chip DRAM Size: 4096 MB Channels: 1 Width: 64-bit Data Rate: 3200 MT/s

CPU 0 runs /home/mbaradaran/ChampSim/dpc3_traces/server_035.champsimtrace.xz
CPU 0 L1D next line prefetcher
Heartbeat CPU 0 instructions: 10000001 cycles: 3341669 heartbeat IPC: 2.99252 cumulative IPC: 2.99252 (Simulation time: 0 hr 1 min 51 sec) 
Heartbeat CPU 0 instructions: 20000000 cycles: 6682945 heartbeat IPC: 2.99287 cumulative IPC: 2.99269 (Simulation time: 0 hr 3 min 49 sec) 
Heartbeat CPU 0 instructions: 30000000 cycles: 10020820 heartbeat IPC: 2.99592 cumulative IPC: 2.99377 (Simulation time: 0 hr 5 min 44 sec) 
Heartbeat CPU 0 instructions: 40000000 cycles: 13363757 heartbeat IPC: 2.99138 cumulative IPC: 2.99317 (Simulation time: 0 hr 7 min 40 sec) 
Heartbeat CPU 0 instructions: 50000003 cycles: 16703074 heartbeat IPC: 2.99463 cumulative IPC: 2.99346 (Simulation time: 0 hr 9 min 33 sec) 

Warmup complete CPU 0 instructions: 50000003 cycles: 16703074 (Simulation time: 0 hr 9 min 33 sec) 

Heartbeat CPU 0 instructions: 60000001 cycles: 25431045 heartbeat IPC: 1.14574 cumulative IPC: 1.14574 (Simulation time: 0 hr 11 min 25 sec) 
Heartbeat CPU 0 instructions: 70000003 cycles: 33807419 heartbeat IPC: 1.19383 cumulative IPC: 1.16929 (Simulation time: 0 hr 13 min 23 sec) 
Heartbeat CPU 0 instructions: 80000001 cycles: 42330887 heartbeat IPC: 1.17323 cumulative IPC: 1.1706 (Simulation time: 0 hr 15 min 19 sec) 
Heartbeat CPU 0 instructions: 90000002 cycles: 50215064 heartbeat IPC: 1.26836 cumulative IPC: 1.1936 (Simulation time: 0 hr 17 min 12 sec) 
Heartbeat CPU 0 instructions: 100000002 cycles: 58734881 heartbeat IPC: 1.17373 cumulative IPC: 1.18958 (Simulation time: 0 hr 19 min 9 sec) 
Finished CPU 0 instructions: 50000003 cycles: 42031808 cumulative IPC: 1.18958 (Simulation time: 0 hr 19 min 9 sec) 

ChampSim completed all CPUs

Region of Interest Statistics

CPU 0 cumulative IPC: 1.18958 instructions: 50000003 cycles: 42031808

SHEET
IPC : 1.18958

L1D TOTAL     ACCESS:   18503594  HIT:   16999171  MISS:    1504423
L1D LOAD      ACCESS:    6275458  HIT:    5574065  MISS:     701393
L1D RFO       ACCESS:    6163133  HIT:    6010660  MISS:     152473
L1D PREFETCH  ACCESS:    6065003  HIT:    5414446  MISS:     650557
L1D WRITEBACK ACCESS:          0  HIT:          0  MISS:          0
L1D PREFETCH  REQUESTED:    6322424  ISSUED:    6230684  USEFUL:     138456  USELESS:     512106
L1D AVERAGE MISS LATENCY: 43.4991 cycles
L1D

SHEET
L1D-total_access : 18503594
L1D-total_hit : 16999171
L1D-total_miss : 1504423
L1D-load_access : 6275458
L1D-load_hit : 5574065
L1D-load_miss : 701393
L1D-rfo_access : 6163133
L1D-rfo_hit : 6010660
L1D-rfo_miss : 152473
L1D-prefetch_access : 6065003
L1D-prefetch_hit : 5414446
L1D-prefetch_miss : 650557
L1D-writeback_access : 0
L1D-writeback_hit : 0
L1D-writeback_miss : 0
L1D-prefetch_requested : 6322424
L1D-prefetch_issued : 6230684
L1D-prefetch_useful : 138456
L1D-prefetch_useless : 512106
L1D-Avg_miss_latency : 43.4991

L1I TOTAL     ACCESS:   19179730  HIT:   13162526  MISS:    6017204
L1I LOAD      ACCESS:    9593884  HIT:    8768494  MISS:     825390
L1I RFO       ACCESS:          0  HIT:          0  MISS:          0
L1I PREFETCH  ACCESS:    9585846  HIT:    4394032  MISS:    5191814
L1I WRITEBACK ACCESS:          0  HIT:          0  MISS:          0
L1I PREFETCH  REQUESTED:   10784919  ISSUED:   10518412  USEFUL:    3085204  USELESS:    2106595
L1I AVERAGE MISS LATENCY: 15.1229 cycles
L1I

SHEET
L1I-total_access : 19179730
L1I-total_hit : 13162526
L1I-total_miss : 6017204
L1I-load_access : 9593884
L1I-load_hit : 8768494
L1I-load_miss : 825390
L1I-rfo_access : 0
L1I-rfo_hit : 0
L1I-rfo_miss : 0
L1I-prefetch_access : 9585846
L1I-prefetch_hit : 4394032
L1I-prefetch_miss : 5191814
L1I-writeback_access : 0
L1I-writeback_hit : 0
L1I-writeback_miss : 0
L1I-prefetch_requested : 10784919
L1I-prefetch_issued : 10518412
L1I-prefetch_useful : 3085204
L1I-prefetch_useless : 2106595
L1I-Avg_miss_latency : 15.1229

L2C TOTAL     ACCESS:    9754774  HIT:    9452316  MISS:     302458
L2C LOAD      ACCESS:    1302572  HIT:    1175757  MISS:     126815
L2C RFO       ACCESS:     150668  HIT:     130576  MISS:      20092
L2C PREFETCH  ACCESS:    7936610  HIT:    7781931  MISS:     154679
L2C WRITEBACK ACCESS:     364924  HIT:     364052  MISS:        872
L2C PREFETCH  REQUESTED:    8476063  ISSUED:    8456602  USEFUL:      15171  USELESS:     138606
L2C AVERAGE MISS LATENCY: 157.652 cycles
L2C

SHEET
L2C-total_access : 9754774
L2C-total_hit : 9452316
L2C-total_miss : 302458
L2C-load_access : 1302572
L2C-load_hit : 1175757
L2C-load_miss : 126815
L2C-rfo_access : 150668
L2C-rfo_hit : 130576
L2C-rfo_miss : 20092
L2C-prefetch_access : 7936610
L2C-prefetch_hit : 7781931
L2C-prefetch_miss : 154679
L2C-writeback_access : 364924
L2C-writeback_hit : 364052
L2C-writeback_miss : 872
L2C-prefetch_requested : 8476063
L2C-prefetch_issued : 8456602
L2C-prefetch_useful : 15171
L2C-prefetch_useless : 138606
L2C-Avg_miss_latency : 157.652

LLC TOTAL     ACCESS:    2638701  HIT:    2359038  MISS:     279663
LLC LOAD      ACCESS:     126466  HIT:      42305  MISS:      84161
LLC RFO       ACCESS:      20084  HIT:      10348  MISS:       9736
LLC PREFETCH  ACCESS:    2391565  HIT:    2206858  MISS:     184707
LLC WRITEBACK ACCESS:     100586  HIT:      99527  MISS:       1059
LLC PREFETCH  REQUESTED:          0  ISSUED:          0  USEFUL:      32110  USELESS:     151977
LLC AVERAGE MISS LATENCY: 214.286 cycles
LLC

SHEET
LLC-total_access : 2638701
LLC-total_hit : 2359038
LLC-total_miss : 279663
LLC-load_access : 126466
LLC-load_hit : 42305
LLC-load_miss : 84161
LLC-rfo_access : 20084
LLC-rfo_hit : 10348
LLC-rfo_miss : 9736
LLC-prefetch_access : 2391565
LLC-prefetch_hit : 2206858
LLC-prefetch_miss : 184707
LLC-writeback_access : 100586
LLC-writeback_hit : 99527
LLC-writeback_miss : 1059
LLC-prefetch_requested : 0
LLC-prefetch_issued : 0
LLC-prefetch_useful : 32110
LLC-prefetch_useless : 151977
LLC-Avg_miss_latency : 214.286

Major fault: 0 Minor fault: 5547



Printing Logs
statHeadFound: 814938
statHeadMissing: 493499
statStreamBufferHit: 13752835
statPrefetchEntryFound: 6905166
statCompactorMatch: 11987121
statStreamTrackerLookup: 15061272
statRecord: 3074151
statGetPointer: 1308437
statEnqueuePrefetch: 20846912
statPrefetchQueueIsFull: 12634
StreamBufferHitRate: 0.913126
Regions' size: 1361
next_region_correct: 2371635
next_region_wrong: 701137
next_region_correct_prediction: 0.771823
statStreamBufferLookups: 1084411584
statL1iLookups: 166775296
statCompactorLookups: 542205792
morteza: start

SHEET
mana_table_access_counter : 9991933
hobp_table_access_counter : 24448110
sab_access_counter : 20658001
srq_access_counter : 16669993

morteza: end
CPU 0 L1D next line prefetcher final stats

DRAM Statistics
 CHANNEL 0
 RQ ROW_BUFFER_HIT:      72159  ROW_BUFFER_MISS:     206434
 DBUS_CONGESTED:     158887
 WQ ROW_BUFFER_HIT:      17693  ROW_BUFFER_MISS:      73061  FULL:          0

 AVG_CONGESTED_CYCLE: 5

CPU 0 Branch Prediction Accuracy: 99.9115% MPKI: 0.17232 Average ROB Occupancy at Mispredict: 188.254

Branch types
NOT_BRANCH: 40267214 80.5344%
BRANCH_DIRECT_JUMP: 771899 1.5438%
BRANCH_INDIRECT: 108179 0.216358%
BRANCH_CONDITIONAL: 6307160 12.6143%
BRANCH_DIRECT_CALL: 1060892 2.12178%
BRANCH_INDIRECT_CALL: 211719 0.423438%
BRANCH_RETURN: 1272634 2.54527%
BRANCH_OTHER: 0 0%

