Initialize SIGNATURE TABLE
ST_SET: 1
ST_WAY: 256
ST_TAG_BIT: 16
ST_TAG_MASK: ffff

Initialize PATTERN TABLE
PT_SET: 512
PT_WAY: 4
SIG_DELTA_BIT: 7
C_SIG_BIT: 4
C_DELTA_BIT: 4

Initialize PREFETCH FILTER
FILTER_SET: 1024
MANA initialize 
tds: 2 tdm: 2
size MANA SINGLE: 15.5 KB
size MANA NULTIPLE: 0 KB
size HOBPT: 0.703125 KB
size SRQ: 0.14502 KB
size SABs: 0.290039 KB
size prefetch queue: 0.453125 KB
total: 17.0913 KB

*** ChampSim Multicore Out-of-Order Simulator ***

Warmup Instructions: 50000000
Simulation Instructions: 50000000
Number of CPUs: 1
LLC sets: 2048
LLC ways: 16
Off-chip DRAM Size: 4096 MB Channels: 1 Width: 64-bit Data Rate: 3200 MT/s

CPU 0 runs /home/mbaradaran/ChampSim/dpc3_traces/server_033.champsimtrace.xz
CPU 0 L1D next line prefetcher
Heartbeat CPU 0 instructions: 10000001 cycles: 3345647 heartbeat IPC: 2.98896 cumulative IPC: 2.98896 (Simulation time: 0 hr 2 min 3 sec) 
Heartbeat CPU 0 instructions: 20000002 cycles: 6689624 heartbeat IPC: 2.99045 cumulative IPC: 2.9897 (Simulation time: 0 hr 4 min 3 sec) 
Heartbeat CPU 0 instructions: 30000001 cycles: 10024031 heartbeat IPC: 2.99903 cumulative IPC: 2.99281 (Simulation time: 0 hr 6 min 5 sec) 
Heartbeat CPU 0 instructions: 40000000 cycles: 13367214 heartbeat IPC: 2.99116 cumulative IPC: 2.9924 (Simulation time: 0 hr 8 min 0 sec) 
Heartbeat CPU 0 instructions: 50000000 cycles: 16709480 heartbeat IPC: 2.99198 cumulative IPC: 2.99231 (Simulation time: 0 hr 9 min 58 sec) 

Warmup complete CPU 0 instructions: 50000004 cycles: 16709481 (Simulation time: 0 hr 9 min 58 sec) 

Heartbeat CPU 0 instructions: 60000000 cycles: 23545046 heartbeat IPC: 1.46294 cumulative IPC: 1.46294 (Simulation time: 0 hr 11 min 47 sec) 
Heartbeat CPU 0 instructions: 70000000 cycles: 30326076 heartbeat IPC: 1.4747 cumulative IPC: 1.4688 (Simulation time: 0 hr 13 min 33 sec) 
Heartbeat CPU 0 instructions: 80000000 cycles: 37929668 heartbeat IPC: 1.31517 cumulative IPC: 1.41375 (Simulation time: 0 hr 15 min 25 sec) 
Heartbeat CPU 0 instructions: 90000003 cycles: 44815323 heartbeat IPC: 1.4523 cumulative IPC: 1.42319 (Simulation time: 0 hr 17 min 13 sec) 
Heartbeat CPU 0 instructions: 100000003 cycles: 51651303 heartbeat IPC: 1.46285 cumulative IPC: 1.43095 (Simulation time: 0 hr 19 min 6 sec) 
Finished CPU 0 instructions: 50000003 cycles: 34941823 cumulative IPC: 1.43095 (Simulation time: 0 hr 19 min 6 sec) 

ChampSim completed all CPUs

Region of Interest Statistics

CPU 0 cumulative IPC: 1.43095 instructions: 50000003 cycles: 34941823

SHEET
IPC : 1.43095

L1D TOTAL     ACCESS:   18632300  HIT:   17149960  MISS:    1482340
L1D LOAD      ACCESS:    6335822  HIT:    5653386  MISS:     682436
L1D RFO       ACCESS:    6171665  HIT:    6021519  MISS:     150146
L1D PREFETCH  ACCESS:    6124813  HIT:    5475055  MISS:     649758
L1D WRITEBACK ACCESS:          0  HIT:          0  MISS:          0
L1D PREFETCH  REQUESTED:    6378715  ISSUED:    6265017  USEFUL:     141436  USELESS:     508329
L1D AVERAGE MISS LATENCY: 23.5056 cycles
L1D

SHEET
L1D-total_access : 18632300
L1D-total_hit : 17149960
L1D-total_miss : 1482340
L1D-load_access : 6335822
L1D-load_hit : 5653386
L1D-load_miss : 682436
L1D-rfo_access : 6171665
L1D-rfo_hit : 6021519
L1D-rfo_miss : 150146
L1D-prefetch_access : 6124813
L1D-prefetch_hit : 5475055
L1D-prefetch_miss : 649758
L1D-writeback_access : 0
L1D-writeback_hit : 0
L1D-writeback_miss : 0
L1D-prefetch_requested : 6378715
L1D-prefetch_issued : 6265017
L1D-prefetch_useful : 141436
L1D-prefetch_useless : 508329
L1D-Avg_miss_latency : 23.5056

L1I TOTAL     ACCESS:   19044112  HIT:   13045737  MISS:    5998375
L1I LOAD      ACCESS:    9587243  HIT:    8753112  MISS:     834131
L1I RFO       ACCESS:          0  HIT:          0  MISS:          0
L1I PREFETCH  ACCESS:    9456869  HIT:    4292625  MISS:    5164244
L1I WRITEBACK ACCESS:          0  HIT:          0  MISS:          0
L1I PREFETCH  REQUESTED:   10663217  ISSUED:   10413488  USEFUL:    3088738  USELESS:    2075494
L1I AVERAGE MISS LATENCY: 14.7316 cycles
L1I

SHEET
L1I-total_access : 19044112
L1I-total_hit : 13045737
L1I-total_miss : 5998375
L1I-load_access : 9587243
L1I-load_hit : 8753112
L1I-load_miss : 834131
L1I-rfo_access : 0
L1I-rfo_hit : 0
L1I-rfo_miss : 0
L1I-prefetch_access : 9456869
L1I-prefetch_hit : 4292625
L1I-prefetch_miss : 5164244
L1I-writeback_access : 0
L1I-writeback_hit : 0
L1I-writeback_miss : 0
L1I-prefetch_requested : 10663217
L1I-prefetch_issued : 10413488
L1I-prefetch_useful : 3088738
L1I-prefetch_useless : 2075494
L1I-Avg_miss_latency : 14.7316

L2C TOTAL     ACCESS:   10059169  HIT:    9770588  MISS:     288581
L2C LOAD      ACCESS:    1308007  HIT:    1185238  MISS:     122769
L2C RFO       ACCESS:     148805  HIT:     128380  MISS:      20425
L2C PREFETCH  ACCESS:    8235862  HIT:    8092020  MISS:     143842
L2C WRITEBACK ACCESS:     366495  HIT:     364950  MISS:       1545
L2C PREFETCH  REQUESTED:    8465215  ISSUED:    8446527  USEFUL:      11863  USELESS:     131165
L2C AVERAGE MISS LATENCY: 49.315 cycles
L2C

SHEET
L2C-total_access : 10059169
L2C-total_hit : 9770588
L2C-total_miss : 288581
L2C-load_access : 1308007
L2C-load_hit : 1185238
L2C-load_miss : 122769
L2C-rfo_access : 148805
L2C-rfo_hit : 128380
L2C-rfo_miss : 20425
L2C-prefetch_access : 8235862
L2C-prefetch_hit : 8092020
L2C-prefetch_miss : 143842
L2C-writeback_access : 366495
L2C-writeback_hit : 364950
L2C-writeback_miss : 1545
L2C-prefetch_requested : 8465215
L2C-prefetch_issued : 8446527
L2C-prefetch_useful : 11863
L2C-prefetch_useless : 131165
L2C-Avg_miss_latency : 49.315

LLC TOTAL     ACCESS:    2313952  HIT:    2263303  MISS:      50649
LLC LOAD      ACCESS:     122739  HIT:     109596  MISS:      13143
LLC RFO       ACCESS:      20425  HIT:      17741  MISS:       2684
LLC PREFETCH  ACCESS:    2067297  HIT:    2032696  MISS:      34601
LLC WRITEBACK ACCESS:     103491  HIT:     103270  MISS:        221
LLC PREFETCH  REQUESTED:          0  ISSUED:          0  USEFUL:       6092  USELESS:      27882
LLC AVERAGE MISS LATENCY: 172.155 cycles
LLC

SHEET
LLC-total_access : 2313952
LLC-total_hit : 2263303
LLC-total_miss : 50649
LLC-load_access : 122739
LLC-load_hit : 109596
LLC-load_miss : 13143
LLC-rfo_access : 20425
LLC-rfo_hit : 17741
LLC-rfo_miss : 2684
LLC-prefetch_access : 2067297
LLC-prefetch_hit : 2032696
LLC-prefetch_miss : 34601
LLC-writeback_access : 103491
LLC-writeback_hit : 103270
LLC-writeback_miss : 221
LLC-prefetch_requested : 0
LLC-prefetch_issued : 0
LLC-prefetch_useful : 6092
LLC-prefetch_useless : 27882
LLC-Avg_miss_latency : 172.155

Major fault: 0 Minor fault: 2482



Printing Logs
statHeadFound: 812150
statHeadMissing: 469684
statStreamBufferHit: 13805355
statPrefetchEntryFound: 6830524
statCompactorMatch: 12038323
statStreamTrackerLookup: 15087189
statRecord: 3048866
statGetPointer: 1281834
statEnqueuePrefetch: 20590230
statPrefetchQueueIsFull: 23865
StreamBufferHitRate: 0.915038
Regions' size: 1416
next_region_correct: 2344705
next_region_wrong: 702727
next_region_correct_prediction: 0.769404
statStreamBufferLookups: 1086277608
statL1iLookups: 164721840
statCompactorLookups: 543138804
morteza: start

SHEET
mana_table_access_counter : 9903237
hobp_table_access_counter : 24177147
sab_access_counter : 20635879
srq_access_counter : 16640864

morteza: end
CPU 0 L1D next line prefetcher final stats

DRAM Statistics
 CHANNEL 0
 RQ ROW_BUFFER_HIT:       8602  ROW_BUFFER_MISS:      41825
 DBUS_CONGESTED:      22066
 WQ ROW_BUFFER_HIT:       3255  ROW_BUFFER_MISS:      15069  FULL:          0

 AVG_CONGESTED_CYCLE: 5

CPU 0 Branch Prediction Accuracy: 99.9029% MPKI: 0.19006 Average ROB Occupancy at Mispredict: 168.687

Branch types
NOT_BRANCH: 40217149 80.4343%
BRANCH_DIRECT_JUMP: 774600 1.5492%
BRANCH_INDIRECT: 108806 0.217612%
BRANCH_CONDITIONAL: 6379335 12.7587%
BRANCH_DIRECT_CALL: 1048810 2.09762%
BRANCH_INDIRECT_CALL: 211109 0.422218%
BRANCH_RETURN: 1259926 2.51985%
BRANCH_OTHER: 0 0%

