Initialize SIGNATURE TABLE
ST_SET: 1
ST_WAY: 256
ST_TAG_BIT: 16
ST_TAG_MASK: ffff

Initialize PATTERN TABLE
PT_SET: 512
PT_WAY: 4
SIG_DELTA_BIT: 7
C_SIG_BIT: 4
C_DELTA_BIT: 4

Initialize PREFETCH FILTER
FILTER_SET: 1024
MANA initialize 
tds: 2 tdm: 2
size MANA SINGLE: 15.5 KB
size MANA NULTIPLE: 0 KB
size HOBPT: 0.703125 KB
size SRQ: 0.14502 KB
size SABs: 0.290039 KB
size prefetch queue: 0.453125 KB
total: 17.0913 KB

*** ChampSim Multicore Out-of-Order Simulator ***

Warmup Instructions: 50000000
Simulation Instructions: 50000000
Number of CPUs: 1
LLC sets: 2048
LLC ways: 16
Off-chip DRAM Size: 4096 MB Channels: 1 Width: 64-bit Data Rate: 3200 MT/s

CPU 0 runs /home/mbaradaran/ChampSim/dpc3_traces/server_015.champsimtrace.xz
CPU 0 L1D next line prefetcher
Heartbeat CPU 0 instructions: 10000002 cycles: 3519496 heartbeat IPC: 2.84132 cumulative IPC: 2.84132 (Simulation time: 0 hr 1 min 56 sec) 
Heartbeat CPU 0 instructions: 20000001 cycles: 7107813 heartbeat IPC: 2.78682 cumulative IPC: 2.81381 (Simulation time: 0 hr 3 min 54 sec) 
Heartbeat CPU 0 instructions: 30000001 cycles: 10646867 heartbeat IPC: 2.82561 cumulative IPC: 2.81773 (Simulation time: 0 hr 5 min 50 sec) 
Heartbeat CPU 0 instructions: 40000002 cycles: 14194909 heartbeat IPC: 2.81846 cumulative IPC: 2.81791 (Simulation time: 0 hr 7 min 47 sec) 
Heartbeat CPU 0 instructions: 50000002 cycles: 17743169 heartbeat IPC: 2.81828 cumulative IPC: 2.81799 (Simulation time: 0 hr 9 min 38 sec) 

Warmup complete CPU 0 instructions: 50000002 cycles: 17743169 (Simulation time: 0 hr 9 min 38 sec) 

Heartbeat CPU 0 instructions: 60000002 cycles: 24546864 heartbeat IPC: 1.46979 cumulative IPC: 1.46979 (Simulation time: 0 hr 11 min 15 sec) 
Heartbeat CPU 0 instructions: 70000003 cycles: 31352871 heartbeat IPC: 1.46929 cumulative IPC: 1.46954 (Simulation time: 0 hr 12 min 50 sec) 
Heartbeat CPU 0 instructions: 80000000 cycles: 38154430 heartbeat IPC: 1.47025 cumulative IPC: 1.46978 (Simulation time: 0 hr 14 min 25 sec) 
Heartbeat CPU 0 instructions: 90000000 cycles: 44959117 heartbeat IPC: 1.46958 cumulative IPC: 1.46973 (Simulation time: 0 hr 16 min 3 sec) 
Heartbeat CPU 0 instructions: 100000003 cycles: 51771997 heartbeat IPC: 1.46781 cumulative IPC: 1.46934 (Simulation time: 0 hr 17 min 38 sec) 
Finished CPU 0 instructions: 50000001 cycles: 34028828 cumulative IPC: 1.46934 (Simulation time: 0 hr 17 min 38 sec) 

ChampSim completed all CPUs

Region of Interest Statistics

CPU 0 cumulative IPC: 1.46934 instructions: 50000001 cycles: 34028828

SHEET
IPC : 1.46934

L1D TOTAL     ACCESS:   22570488  HIT:   22552715  MISS:      17773
L1D LOAD      ACCESS:    7045132  HIT:    7044597  MISS:        535
L1D RFO       ACCESS:    8585096  HIT:    8585001  MISS:         95
L1D PREFETCH  ACCESS:    6940260  HIT:    6923117  MISS:      17143
L1D WRITEBACK ACCESS:          0  HIT:          0  MISS:          0
L1D PREFETCH  REQUESTED:    7045194  ISSUED:    6946640  USEFUL:         84  USELESS:      17057
L1D AVERAGE MISS LATENCY: 16.185 cycles
L1D

SHEET
L1D-total_access : 22570488
L1D-total_hit : 22552715
L1D-total_miss : 17773
L1D-load_access : 7045132
L1D-load_hit : 7044597
L1D-load_miss : 535
L1D-rfo_access : 8585096
L1D-rfo_hit : 8585001
L1D-rfo_miss : 95
L1D-prefetch_access : 6940260
L1D-prefetch_hit : 6923117
L1D-prefetch_miss : 17143
L1D-writeback_access : 0
L1D-writeback_hit : 0
L1D-writeback_miss : 0
L1D-prefetch_requested : 7045194
L1D-prefetch_issued : 6946640
L1D-prefetch_useful : 84
L1D-prefetch_useless : 17057
L1D-Avg_miss_latency : 16.185

L1I TOTAL     ACCESS:   21718666  HIT:   15672146  MISS:    6046520
L1I LOAD      ACCESS:    9555139  HIT:    8724363  MISS:     830776
L1I RFO       ACCESS:          0  HIT:          0  MISS:          0
L1I PREFETCH  ACCESS:   12163527  HIT:    6947783  MISS:    5215744
L1I WRITEBACK ACCESS:          0  HIT:          0  MISS:          0
L1I PREFETCH  REQUESTED:   13337109  ISSUED:   13232879  USEFUL:    3140833  USELESS:    2074955
L1I AVERAGE MISS LATENCY: 14.1153 cycles
L1I

SHEET
L1I-total_access : 21718666
L1I-total_hit : 15672146
L1I-total_miss : 6046520
L1I-load_access : 9555139
L1I-load_hit : 8724363
L1I-load_miss : 830776
L1I-rfo_access : 0
L1I-rfo_hit : 0
L1I-rfo_miss : 0
L1I-prefetch_access : 12163527
L1I-prefetch_hit : 6947783
L1I-prefetch_miss : 5215744
L1I-writeback_access : 0
L1I-writeback_hit : 0
L1I-writeback_miss : 0
L1I-prefetch_requested : 13337109
L1I-prefetch_issued : 13232879
L1I-prefetch_useful : 3140833
L1I-prefetch_useless : 2074955
L1I-Avg_miss_latency : 14.1153

L2C TOTAL     ACCESS:    7949675  HIT:    7949438  MISS:        237
L2C LOAD      ACCESS:     606028  HIT:     605967  MISS:         61
L2C RFO       ACCESS:         94  HIT:         92  MISS:          2
L2C PREFETCH  ACCESS:    7343203  HIT:    7343029  MISS:        174
L2C WRITEBACK ACCESS:        350  HIT:        350  MISS:          0
L2C PREFETCH  REQUESTED:    5090826  ISSUED:    5090079  USEFUL:         73  USELESS:         91
L2C AVERAGE MISS LATENCY: 103.629 cycles
L2C

SHEET
L2C-total_access : 7949675
L2C-total_hit : 7949438
L2C-total_miss : 237
L2C-load_access : 606028
L2C-load_hit : 605967
L2C-load_miss : 61
L2C-rfo_access : 94
L2C-rfo_hit : 92
L2C-rfo_miss : 2
L2C-prefetch_access : 7343203
L2C-prefetch_hit : 7343029
L2C-prefetch_miss : 174
L2C-writeback_access : 350
L2C-writeback_hit : 350
L2C-writeback_miss : 0
L2C-prefetch_requested : 5090826
L2C-prefetch_issued : 5090079
L2C-prefetch_useful : 73
L2C-prefetch_useless : 91
L2C-Avg_miss_latency : 103.629

LLC TOTAL     ACCESS:    1155775  HIT:    1155198  MISS:        577
LLC LOAD      ACCESS:         61  HIT:         44  MISS:         17
LLC RFO       ACCESS:          2  HIT:          0  MISS:          2
LLC PREFETCH  ACCESS:    1155646  HIT:    1155089  MISS:        557
LLC WRITEBACK ACCESS:         66  HIT:         65  MISS:          1
LLC PREFETCH  REQUESTED:          0  ISSUED:          0  USEFUL:          5  USELESS:        112
LLC AVERAGE MISS LATENCY: 264.255 cycles
LLC

SHEET
LLC-total_access : 1155775
LLC-total_hit : 1155198
LLC-total_miss : 577
LLC-load_access : 61
LLC-load_hit : 44
LLC-load_miss : 17
LLC-rfo_access : 2
LLC-rfo_hit : 0
LLC-rfo_miss : 2
LLC-prefetch_access : 1155646
LLC-prefetch_hit : 1155089
LLC-prefetch_miss : 557
LLC-writeback_access : 66
LLC-writeback_hit : 65
LLC-writeback_miss : 1
LLC-prefetch_requested : 0
LLC-prefetch_issued : 0
LLC-prefetch_useful : 5
LLC-prefetch_useless : 112
LLC-Avg_miss_latency : 264.255

Major fault: 0 Minor fault: 1888



Printing Logs
statHeadFound: 1105180
statHeadMissing: 435701
statStreamBufferHit: 13059667
statPrefetchEntryFound: 8486679
statCompactorMatch: 11402351
statStreamTrackerLookup: 14600548
statRecord: 3198197
statGetPointer: 1540881
statEnqueuePrefetch: 26062758
statPrefetchQueueIsFull: 2605
StreamBufferHitRate: 0.894464
Regions' size: 2526
next_region_correct: 2309053
next_region_wrong: 886600
next_region_correct_prediction: 0.722561
statStreamBufferLookups: 1051239456
statL1iLookups: 208502064
statCompactorLookups: 525619728
morteza: start

SHEET
mana_table_access_counter : 11687463
hobp_table_access_counter : 27445557
sab_access_counter : 21546346
srq_access_counter : 16999533

morteza: end
CPU 0 L1D next line prefetcher final stats

DRAM Statistics
 CHANNEL 0
 RQ ROW_BUFFER_HIT:         86  ROW_BUFFER_MISS:        490
 DBUS_CONGESTED:        361
 WQ ROW_BUFFER_HIT:         64  ROW_BUFFER_MISS:        336  FULL:          0

 AVG_CONGESTED_CYCLE: 6

CPU 0 Branch Prediction Accuracy: 99.9085% MPKI: 0.15428 Average ROB Occupancy at Mispredict: 196.334

Branch types
NOT_BRANCH: 41572973 83.1459%
BRANCH_DIRECT_JUMP: 436253 0.872506%
BRANCH_INDIRECT: 0 0%
BRANCH_CONDITIONAL: 5395874 10.7917%
BRANCH_DIRECT_CALL: 1173385 2.34677%
BRANCH_INDIRECT_CALL: 123910 0.24782%
BRANCH_RETURN: 1297306 2.59461%
BRANCH_OTHER: 0 0%

