Initialize SIGNATURE TABLE
ST_SET: 1
ST_WAY: 256
ST_TAG_BIT: 16
ST_TAG_MASK: ffff

Initialize PATTERN TABLE
PT_SET: 512
PT_WAY: 4
SIG_DELTA_BIT: 7
C_SIG_BIT: 4
C_DELTA_BIT: 4

Initialize PREFETCH FILTER
FILTER_SET: 1024
MANA initialize 
tds: 2 tdm: 2
size MANA SINGLE: 15.5 KB
size MANA NULTIPLE: 0 KB
size HOBPT: 0.703125 KB
size SRQ: 0.14502 KB
size SABs: 0.290039 KB
size prefetch queue: 0.453125 KB
total: 17.0913 KB

*** ChampSim Multicore Out-of-Order Simulator ***

Warmup Instructions: 50000000
Simulation Instructions: 50000000
Number of CPUs: 1
LLC sets: 2048
LLC ways: 16
Off-chip DRAM Size: 4096 MB Channels: 1 Width: 64-bit Data Rate: 3200 MT/s

CPU 0 runs /home/mbaradaran/ChampSim/dpc3_traces/server_021.champsimtrace.xz
CPU 0 L1D next line prefetcher
Heartbeat CPU 0 instructions: 10000000 cycles: 3633253 heartbeat IPC: 2.75235 cumulative IPC: 2.75235 (Simulation time: 0 hr 2 min 6 sec) 
Heartbeat CPU 0 instructions: 20000000 cycles: 7261086 heartbeat IPC: 2.75647 cumulative IPC: 2.75441 (Simulation time: 0 hr 3 min 56 sec) 
Heartbeat CPU 0 instructions: 30000003 cycles: 10919353 heartbeat IPC: 2.73354 cumulative IPC: 2.74742 (Simulation time: 0 hr 5 min 58 sec) 
Heartbeat CPU 0 instructions: 40000001 cycles: 14541575 heartbeat IPC: 2.76074 cumulative IPC: 2.75073 (Simulation time: 0 hr 8 min 7 sec) 
Heartbeat CPU 0 instructions: 50000002 cycles: 18185395 heartbeat IPC: 2.74437 cumulative IPC: 2.74946 (Simulation time: 0 hr 10 min 9 sec) 

Warmup complete CPU 0 instructions: 50000002 cycles: 18185395 (Simulation time: 0 hr 10 min 9 sec) 

Heartbeat CPU 0 instructions: 60000001 cycles: 34737287 heartbeat IPC: 0.60416 cumulative IPC: 0.60416 (Simulation time: 0 hr 12 min 50 sec) 
Heartbeat CPU 0 instructions: 70000002 cycles: 51449463 heartbeat IPC: 0.598366 cumulative IPC: 0.601249 (Simulation time: 0 hr 15 min 38 sec) 
Heartbeat CPU 0 instructions: 80000001 cycles: 67998106 heartbeat IPC: 0.604279 cumulative IPC: 0.602256 (Simulation time: 0 hr 18 min 26 sec) 
Heartbeat CPU 0 instructions: 90000001 cycles: 84784676 heartbeat IPC: 0.595714 cumulative IPC: 0.600607 (Simulation time: 0 hr 21 min 11 sec) 
Heartbeat CPU 0 instructions: 100000002 cycles: 101393292 heartbeat IPC: 0.602097 cumulative IPC: 0.600905 (Simulation time: 0 hr 23 min 34 sec) 
Finished CPU 0 instructions: 50000000 cycles: 83207897 cumulative IPC: 0.600905 (Simulation time: 0 hr 23 min 34 sec) 

ChampSim completed all CPUs

Region of Interest Statistics

CPU 0 cumulative IPC: 0.600905 instructions: 50000000 cycles: 83207897

SHEET
IPC : 0.600905

L1D TOTAL     ACCESS:   18813899  HIT:   16610464  MISS:    2203435
L1D LOAD      ACCESS:    7119587  HIT:    6416324  MISS:     703263
L1D RFO       ACCESS:    5872412  HIT:    4896899  MISS:     975513
L1D PREFETCH  ACCESS:    5821900  HIT:    5297241  MISS:     524659
L1D WRITEBACK ACCESS:          0  HIT:          0  MISS:          0
L1D PREFETCH  REQUESTED:    7164207  ISSUED:    6958603  USEFUL:     203423  USELESS:     321231
L1D AVERAGE MISS LATENCY: 178.238 cycles
L1D

SHEET
L1D-total_access : 18813899
L1D-total_hit : 16610464
L1D-total_miss : 2203435
L1D-load_access : 7119587
L1D-load_hit : 6416324
L1D-load_miss : 703263
L1D-rfo_access : 5872412
L1D-rfo_hit : 4896899
L1D-rfo_miss : 975513
L1D-prefetch_access : 5821900
L1D-prefetch_hit : 5297241
L1D-prefetch_miss : 524659
L1D-writeback_access : 0
L1D-writeback_hit : 0
L1D-writeback_miss : 0
L1D-prefetch_requested : 7164207
L1D-prefetch_issued : 6958603
L1D-prefetch_useful : 203423
L1D-prefetch_useless : 321231
L1D-Avg_miss_latency : 178.238

L1I TOTAL     ACCESS:   17365573  HIT:   13245097  MISS:    4120476
L1I LOAD      ACCESS:   10036440  HIT:    9591480  MISS:     444960
L1I RFO       ACCESS:          0  HIT:          0  MISS:          0
L1I PREFETCH  ACCESS:    7329133  HIT:    3653617  MISS:    3675516
L1I WRITEBACK ACCESS:          0  HIT:          0  MISS:          0
L1I PREFETCH  REQUESTED:    7959243  ISSUED:    7791184  USEFUL:    2765335  USELESS:     910154
L1I AVERAGE MISS LATENCY: 16.1969 cycles
L1I

SHEET
L1I-total_access : 17365573
L1I-total_hit : 13245097
L1I-total_miss : 4120476
L1I-load_access : 10036440
L1I-load_hit : 9591480
L1I-load_miss : 444960
L1I-rfo_access : 0
L1I-rfo_hit : 0
L1I-rfo_miss : 0
L1I-prefetch_access : 7329133
L1I-prefetch_hit : 3653617
L1I-prefetch_miss : 3675516
L1I-writeback_access : 0
L1I-writeback_hit : 0
L1I-writeback_miss : 0
L1I-prefetch_requested : 7959243
L1I-prefetch_issued : 7791184
L1I-prefetch_useful : 2765335
L1I-prefetch_useless : 910154
L1I-Avg_miss_latency : 16.1969

L2C TOTAL     ACCESS:    9023678  HIT:    7172156  MISS:    1851522
L2C LOAD      ACCESS:     783010  HIT:     526611  MISS:     256399
L2C RFO       ACCESS:     974965  HIT:      21645  MISS:     953320
L2C PREFETCH  ACCESS:    6085841  HIT:    5446960  MISS:     638881
L2C WRITEBACK ACCESS:    1179862  HIT:    1176940  MISS:       2922
L2C PREFETCH  REQUESTED:    6116129  ISSUED:    6107439  USEFUL:      27486  USELESS:     611271
L2C AVERAGE MISS LATENCY: 216.288 cycles
L2C

SHEET
L2C-total_access : 9023678
L2C-total_hit : 7172156
L2C-total_miss : 1851522
L2C-load_access : 783010
L2C-load_hit : 526611
L2C-load_miss : 256399
L2C-rfo_access : 974965
L2C-rfo_hit : 21645
L2C-rfo_miss : 953320
L2C-prefetch_access : 6085841
L2C-prefetch_hit : 5446960
L2C-prefetch_miss : 638881
L2C-writeback_access : 1179862
L2C-writeback_hit : 1176940
L2C-writeback_miss : 2922
L2C-prefetch_requested : 6116129
L2C-prefetch_issued : 6107439
L2C-prefetch_useful : 27486
L2C-prefetch_useless : 611271
L2C-Avg_miss_latency : 216.288

LLC TOTAL     ACCESS:    4415297  HIT:    3020901  MISS:    1394396
LLC LOAD      ACCESS:     256341  HIT:     180331  MISS:      76010
LLC RFO       ACCESS:     953252  HIT:     142460  MISS:     810792
LLC PREFETCH  ACCESS:    2092866  HIT:    1587302  MISS:     505564
LLC WRITEBACK ACCESS:    1112838  HIT:    1110808  MISS:       2030
LLC PREFETCH  REQUESTED:          0  ISSUED:          0  USEFUL:      28395  USELESS:     475638
LLC AVERAGE MISS LATENCY: 291.947 cycles
LLC

SHEET
LLC-total_access : 4415297
LLC-total_hit : 3020901
LLC-total_miss : 1394396
LLC-load_access : 256341
LLC-load_hit : 180331
LLC-load_miss : 76010
LLC-rfo_access : 953252
LLC-rfo_hit : 142460
LLC-rfo_miss : 810792
LLC-prefetch_access : 2092867
LLC-prefetch_hit : 1587303
LLC-prefetch_miss : 505564
LLC-writeback_access : 1112838
LLC-writeback_hit : 1110808
LLC-writeback_miss : 2030
LLC-prefetch_requested : 0
LLC-prefetch_issued : 0
LLC-prefetch_useful : 28395
LLC-prefetch_useless : 475638
LLC-Avg_miss_latency : 291.947

Major fault: 0 Minor fault: 22289



Printing Logs
statHeadFound: 536684
statHeadMissing: 887925
statStreamBufferHit: 12112145
statPrefetchEntryFound: 4940203
statCompactorMatch: 11147866
statStreamTrackerLookup: 13536754
statRecord: 2388888
statGetPointer: 1424609
statEnqueuePrefetch: 15489709
statPrefetchQueueIsFull: 58802
StreamBufferHitRate: 0.89476
Regions' size: 1100
next_region_correct: 2010254
next_region_wrong: 377516
next_region_correct_prediction: 0.841896
statStreamBufferLookups: 974646288
statL1iLookups: 123917672
statCompactorLookups: 487323144
morteza: start

SHEET
mana_table_access_counter : 7387875
hobp_table_access_counter : 20252953
sab_access_counter : 17052348
srq_access_counter : 14943896

morteza: end
CPU 0 L1D next line prefetcher final stats

DRAM Statistics
 CHANNEL 0
 RQ ROW_BUFFER_HIT:     411034  ROW_BUFFER_MISS:     981078
 DBUS_CONGESTED:    1439223
 WQ ROW_BUFFER_HIT:     254260  ROW_BUFFER_MISS:     642493  FULL:          0

 AVG_CONGESTED_CYCLE: 6

CPU 0 Branch Prediction Accuracy: 99.8303% MPKI: 0.27836 Average ROB Occupancy at Mispredict: 218.259

Branch types
NOT_BRANCH: 41798562 83.5971%
BRANCH_DIRECT_JUMP: 445216 0.890432%
BRANCH_INDIRECT: 50481 0.100962%
BRANCH_CONDITIONAL: 5868252 11.7365%
BRANCH_DIRECT_CALL: 758229 1.51646%
BRANCH_INDIRECT_CALL: 160494 0.320988%
BRANCH_RETURN: 918718 1.83744%
BRANCH_OTHER: 0 0%

