Initialize SIGNATURE TABLE
ST_SET: 1
ST_WAY: 256
ST_TAG_BIT: 16
ST_TAG_MASK: ffff

Initialize PATTERN TABLE
PT_SET: 512
PT_WAY: 4
SIG_DELTA_BIT: 7
C_SIG_BIT: 4
C_DELTA_BIT: 4

Initialize PREFETCH FILTER
FILTER_SET: 1024
MANA initialize 
tds: 2 tdm: 2
size MANA SINGLE: 15.5 KB
size MANA NULTIPLE: 0 KB
size HOBPT: 0.703125 KB
size SRQ: 0.14502 KB
size SABs: 0.290039 KB
size prefetch queue: 0.453125 KB
total: 17.0913 KB

*** ChampSim Multicore Out-of-Order Simulator ***

Warmup Instructions: 50000000
Simulation Instructions: 50000000
Number of CPUs: 1
LLC sets: 2048
LLC ways: 16
Off-chip DRAM Size: 4096 MB Channels: 1 Width: 64-bit Data Rate: 3200 MT/s

CPU 0 runs /home/mbaradaran/ChampSim/dpc3_traces/server_031.champsimtrace.xz
CPU 0 L1D next line prefetcher
Heartbeat CPU 0 instructions: 10000003 cycles: 3545224 heartbeat IPC: 2.8207 cumulative IPC: 2.8207 (Simulation time: 0 hr 1 min 56 sec) 
Heartbeat CPU 0 instructions: 20000002 cycles: 7089748 heartbeat IPC: 2.82125 cumulative IPC: 2.82098 (Simulation time: 0 hr 3 min 50 sec) 
Heartbeat CPU 0 instructions: 30000002 cycles: 10634528 heartbeat IPC: 2.82105 cumulative IPC: 2.821 (Simulation time: 0 hr 5 min 45 sec) 
Heartbeat CPU 0 instructions: 40000003 cycles: 14174506 heartbeat IPC: 2.82488 cumulative IPC: 2.82197 (Simulation time: 0 hr 7 min 45 sec) 
Heartbeat CPU 0 instructions: 50000001 cycles: 17716895 heartbeat IPC: 2.82295 cumulative IPC: 2.82217 (Simulation time: 0 hr 9 min 38 sec) 

Warmup complete CPU 0 instructions: 50000001 cycles: 17716895 (Simulation time: 0 hr 9 min 38 sec) 

Heartbeat CPU 0 instructions: 60000001 cycles: 25724753 heartbeat IPC: 1.24877 cumulative IPC: 1.24877 (Simulation time: 0 hr 11 min 31 sec) 
Heartbeat CPU 0 instructions: 70000002 cycles: 33798287 heartbeat IPC: 1.23862 cumulative IPC: 1.24367 (Simulation time: 0 hr 13 min 29 sec) 
*** Reached end of trace for Core: 0 Repeating trace: /home/mbaradaran/ChampSim/dpc3_traces/server_031.champsimtrace.xz
Heartbeat CPU 0 instructions: 80000000 cycles: 41717178 heartbeat IPC: 1.2628 cumulative IPC: 1.24999 (Simulation time: 0 hr 15 min 23 sec) 
Heartbeat CPU 0 instructions: 90000003 cycles: 49668421 heartbeat IPC: 1.25767 cumulative IPC: 1.2519 (Simulation time: 0 hr 17 min 22 sec) 
Heartbeat CPU 0 instructions: 100000000 cycles: 57574925 heartbeat IPC: 1.26478 cumulative IPC: 1.25445 (Simulation time: 0 hr 19 min 17 sec) 
Finished CPU 0 instructions: 50000000 cycles: 39858032 cumulative IPC: 1.25445 (Simulation time: 0 hr 19 min 17 sec) 

ChampSim completed all CPUs

Region of Interest Statistics

CPU 0 cumulative IPC: 1.25445 instructions: 50000000 cycles: 39858032

SHEET
IPC : 1.25445

L1D TOTAL     ACCESS:   20098200  HIT:   18193858  MISS:    1904342
L1D LOAD      ACCESS:    7045376  HIT:    6174466  MISS:     870910
L1D RFO       ACCESS:    6340302  HIT:    6048546  MISS:     291756
L1D PREFETCH  ACCESS:    6712522  HIT:    5970846  MISS:     741676
L1D WRITEBACK ACCESS:          0  HIT:          0  MISS:          0
L1D PREFETCH  REQUESTED:    7107171  ISSUED:    7006460  USEFUL:     176267  USELESS:     565409
L1D AVERAGE MISS LATENCY: 22.2185 cycles
L1D

SHEET
L1D-total_access : 20098200
L1D-total_hit : 18193858
L1D-total_miss : 1904342
L1D-load_access : 7045376
L1D-load_hit : 6174466
L1D-load_miss : 870910
L1D-rfo_access : 6340302
L1D-rfo_hit : 6048546
L1D-rfo_miss : 291756
L1D-prefetch_access : 6712522
L1D-prefetch_hit : 5970846
L1D-prefetch_miss : 741676
L1D-writeback_access : 0
L1D-writeback_hit : 0
L1D-writeback_miss : 0
L1D-prefetch_requested : 7107171
L1D-prefetch_issued : 7006460
L1D-prefetch_useful : 176267
L1D-prefetch_useless : 565409
L1D-Avg_miss_latency : 22.2185

L1I TOTAL     ACCESS:   19474823  HIT:   13050331  MISS:    6424492
L1I LOAD      ACCESS:    9484364  HIT:    8405987  MISS:    1078377
L1I RFO       ACCESS:          0  HIT:          0  MISS:          0
L1I PREFETCH  ACCESS:    9990459  HIT:    4644344  MISS:    5346115
L1I WRITEBACK ACCESS:          0  HIT:          0  MISS:          0
L1I PREFETCH  REQUESTED:   11247960  ISSUED:   10967794  USEFUL:    2601529  USELESS:    2744549
L1I AVERAGE MISS LATENCY: 15.5483 cycles
L1I

SHEET
L1I-total_access : 19474823
L1I-total_hit : 13050331
L1I-total_miss : 6424492
L1I-load_access : 9484364
L1I-load_hit : 8405987
L1I-load_miss : 1078377
L1I-rfo_access : 0
L1I-rfo_hit : 0
L1I-rfo_miss : 0
L1I-prefetch_access : 9990459
L1I-prefetch_hit : 4644344
L1I-prefetch_miss : 5346115
L1I-writeback_access : 0
L1I-writeback_hit : 0
L1I-writeback_miss : 0
L1I-prefetch_requested : 11247960
L1I-prefetch_issued : 10967794
L1I-prefetch_useful : 2601529
L1I-prefetch_useless : 2744549
L1I-Avg_miss_latency : 15.5483

L2C TOTAL     ACCESS:   11403390  HIT:   10865177  MISS:     538213
L2C LOAD      ACCESS:    1637560  HIT:    1478026  MISS:     159534
L2C RFO       ACCESS:     289645  HIT:     250798  MISS:      38847
L2C PREFETCH  ACCESS:    8859608  HIT:    8521121  MISS:     338487
L2C WRITEBACK ACCESS:     616577  HIT:     615232  MISS:       1345
L2C PREFETCH  REQUESTED:    9828417  ISSUED:    9797648  USEFUL:      20743  USELESS:     316803
L2C AVERAGE MISS LATENCY: 46.1447 cycles
L2C

SHEET
L2C-total_access : 11403390
L2C-total_hit : 10865177
L2C-total_miss : 538213
L2C-load_access : 1637560
L2C-load_hit : 1478026
L2C-load_miss : 159534
L2C-rfo_access : 289645
L2C-rfo_hit : 250798
L2C-rfo_miss : 38847
L2C-prefetch_access : 8859608
L2C-prefetch_hit : 8521121
L2C-prefetch_miss : 338487
L2C-writeback_access : 616577
L2C-writeback_hit : 615232
L2C-writeback_miss : 1345
L2C-prefetch_requested : 9828417
L2C-prefetch_issued : 9797648
L2C-prefetch_useful : 20743
L2C-prefetch_useless : 316803
L2C-Avg_miss_latency : 46.1447

LLC TOTAL     ACCESS:    3001495  HIT:    2924606  MISS:      76889
LLC LOAD      ACCESS:     159519  HIT:     140994  MISS:      18525
LLC RFO       ACCESS:      38842  HIT:      34597  MISS:       4245
LLC PREFETCH  ACCESS:    2728353  HIT:    2674767  MISS:      53586
LLC WRITEBACK ACCESS:      74781  HIT:      74248  MISS:        533
LLC PREFETCH  REQUESTED:          0  ISSUED:          0  USEFUL:       2755  USELESS:      50294
LLC AVERAGE MISS LATENCY: 157.928 cycles
LLC

SHEET
LLC-total_access : 3001495
LLC-total_hit : 2924606
LLC-total_miss : 76889
LLC-load_access : 159519
LLC-load_hit : 140994
LLC-load_miss : 18525
LLC-rfo_access : 38842
LLC-rfo_hit : 34597
LLC-rfo_miss : 4245
LLC-prefetch_access : 2728353
LLC-prefetch_hit : 2674767
LLC-prefetch_miss : 53586
LLC-writeback_access : 74781
LLC-writeback_hit : 74248
LLC-writeback_miss : 533
LLC-prefetch_requested : 0
LLC-prefetch_issued : 0
LLC-prefetch_useful : 2755
LLC-prefetch_useless : 50294
LLC-Avg_miss_latency : 157.928

Major fault: 0 Minor fault: 6041



Printing Logs
statHeadFound: 1094197
statHeadMissing: 1091504
statStreamBufferHit: 12192926
statPrefetchEntryFound: 7326586
statCompactorMatch: 11614948
statStreamTrackerLookup: 14378627
statRecord: 2763679
statGetPointer: 2185701
statEnqueuePrefetch: 21666879
statPrefetchQueueIsFull: 187258
StreamBufferHitRate: 0.84799
Regions' size: 2011
next_region_correct: 1955779
next_region_wrong: 805871
next_region_correct_prediction: 0.708192
statStreamBufferLookups: 1035261144
statL1iLookups: 173335032
statCompactorLookups: 517630572
morteza: start

SHEET
mana_table_access_counter : 10277505
hobp_table_access_counter : 27311364
sab_access_counter : 19519512
srq_access_counter : 15830327

morteza: end
CPU 0 L1D next line prefetcher final stats

DRAM Statistics
 CHANNEL 0
 RQ ROW_BUFFER_HIT:      21722  ROW_BUFFER_MISS:      54627
 DBUS_CONGESTED:      34028
 WQ ROW_BUFFER_HIT:        773  ROW_BUFFER_MISS:       5237  FULL:          0

 AVG_CONGESTED_CYCLE: 5

CPU 0 Branch Prediction Accuracy: 99.6894% MPKI: 0.58048 Average ROB Occupancy at Mispredict: 126.087

Branch types
NOT_BRANCH: 40655592 81.3112%
BRANCH_DIRECT_JUMP: 546484 1.09297%
BRANCH_INDIRECT: 172433 0.344866%
BRANCH_CONDITIONAL: 6207571 12.4151%
BRANCH_DIRECT_CALL: 1018498 2.037%
BRANCH_INDIRECT_CALL: 190373 0.380746%
BRANCH_RETURN: 1208857 2.41771%
BRANCH_OTHER: 0 0%

