Initialize SIGNATURE TABLE
ST_SET: 1
ST_WAY: 256
ST_TAG_BIT: 16
ST_TAG_MASK: ffff

Initialize PATTERN TABLE
PT_SET: 512
PT_WAY: 4
SIG_DELTA_BIT: 7
C_SIG_BIT: 4
C_DELTA_BIT: 4

Initialize PREFETCH FILTER
FILTER_SET: 1024
MANA initialize 
tds: 2 tdm: 2
size MANA SINGLE: 15.5 KB
size MANA NULTIPLE: 0 KB
size HOBPT: 0.703125 KB
size SRQ: 0.14502 KB
size SABs: 0.290039 KB
size prefetch queue: 0.453125 KB
total: 17.0913 KB

*** ChampSim Multicore Out-of-Order Simulator ***

Warmup Instructions: 50000000
Simulation Instructions: 50000000
Number of CPUs: 1
LLC sets: 2048
LLC ways: 16
Off-chip DRAM Size: 4096 MB Channels: 1 Width: 64-bit Data Rate: 3200 MT/s

CPU 0 runs /home/mbaradaran/ChampSim/dpc3_traces/server_025.champsimtrace.xz
CPU 0 L1D next line prefetcher
Heartbeat CPU 0 instructions: 10000003 cycles: 3547454 heartbeat IPC: 2.81892 cumulative IPC: 2.81892 (Simulation time: 0 hr 2 min 3 sec) 
Heartbeat CPU 0 instructions: 20000000 cycles: 7101123 heartbeat IPC: 2.81399 cumulative IPC: 2.81646 (Simulation time: 0 hr 4 min 11 sec) 
Heartbeat CPU 0 instructions: 30000001 cycles: 10647467 heartbeat IPC: 2.81981 cumulative IPC: 2.81757 (Simulation time: 0 hr 6 min 9 sec) 
Heartbeat CPU 0 instructions: 40000003 cycles: 14199882 heartbeat IPC: 2.81499 cumulative IPC: 2.81693 (Simulation time: 0 hr 8 min 5 sec) 
Heartbeat CPU 0 instructions: 50000001 cycles: 17750026 heartbeat IPC: 2.81679 cumulative IPC: 2.8169 (Simulation time: 0 hr 10 min 4 sec) 

Warmup complete CPU 0 instructions: 50000001 cycles: 17750026 (Simulation time: 0 hr 10 min 4 sec) 

Heartbeat CPU 0 instructions: 60000000 cycles: 25263066 heartbeat IPC: 1.33102 cumulative IPC: 1.33102 (Simulation time: 0 hr 11 min 58 sec) 
Heartbeat CPU 0 instructions: 70000000 cycles: 32880379 heartbeat IPC: 1.3128 cumulative IPC: 1.32185 (Simulation time: 0 hr 13 min 55 sec) 
Heartbeat CPU 0 instructions: 80000002 cycles: 40388132 heartbeat IPC: 1.33196 cumulative IPC: 1.3252 (Simulation time: 0 hr 15 min 49 sec) 
Heartbeat CPU 0 instructions: 90000001 cycles: 47400330 heartbeat IPC: 1.42609 cumulative IPC: 1.34906 (Simulation time: 0 hr 17 min 39 sec) 
Heartbeat CPU 0 instructions: 100000003 cycles: 54016611 heartbeat IPC: 1.51142 cumulative IPC: 1.37868 (Simulation time: 0 hr 19 min 33 sec) 
Finished CPU 0 instructions: 50000002 cycles: 36266585 cumulative IPC: 1.37868 (Simulation time: 0 hr 19 min 33 sec) 

ChampSim completed all CPUs

Region of Interest Statistics

CPU 0 cumulative IPC: 1.37868 instructions: 50000002 cycles: 36266585

SHEET
IPC : 1.37868

L1D TOTAL     ACCESS:   20663698  HIT:   19237505  MISS:    1426193
L1D LOAD      ACCESS:    7288927  HIT:    6672572  MISS:     616355
L1D RFO       ACCESS:    6394083  HIT:    6145345  MISS:     248738
L1D PREFETCH  ACCESS:    6980688  HIT:    6419588  MISS:     561100
L1D WRITEBACK ACCESS:          0  HIT:          0  MISS:          0
L1D PREFETCH  REQUESTED:    7330744  ISSUED:    7161423  USEFUL:     133467  USELESS:     427623
L1D AVERAGE MISS LATENCY: 22.9197 cycles
L1D

SHEET
L1D-total_access : 20663698
L1D-total_hit : 19237505
L1D-total_miss : 1426193
L1D-load_access : 7288927
L1D-load_hit : 6672572
L1D-load_miss : 616355
L1D-rfo_access : 6394083
L1D-rfo_hit : 6145345
L1D-rfo_miss : 248738
L1D-prefetch_access : 6980688
L1D-prefetch_hit : 6419588
L1D-prefetch_miss : 561100
L1D-writeback_access : 0
L1D-writeback_hit : 0
L1D-writeback_miss : 0
L1D-prefetch_requested : 7330744
L1D-prefetch_issued : 7161423
L1D-prefetch_useful : 133467
L1D-prefetch_useless : 427623
L1D-Avg_miss_latency : 22.9197

L1I TOTAL     ACCESS:   19289334  HIT:   13508406  MISS:    5780928
L1I LOAD      ACCESS:    9315762  HIT:    8333526  MISS:     982236
L1I RFO       ACCESS:          0  HIT:          0  MISS:          0
L1I PREFETCH  ACCESS:    9973572  HIT:    5174880  MISS:    4798692
L1I WRITEBACK ACCESS:          0  HIT:          0  MISS:          0
L1I PREFETCH  REQUESTED:   11189113  ISSUED:   10850469  USEFUL:    2159362  USELESS:    2639326
L1I AVERAGE MISS LATENCY: 15.9751 cycles
L1I

SHEET
L1I-total_access : 19289334
L1I-total_hit : 13508406
L1I-total_miss : 5780928
L1I-load_access : 9315762
L1I-load_hit : 8333526
L1I-load_miss : 982236
L1I-rfo_access : 0
L1I-rfo_hit : 0
L1I-rfo_miss : 0
L1I-prefetch_access : 9973572
L1I-prefetch_hit : 5174880
L1I-prefetch_miss : 4798692
L1I-writeback_access : 0
L1I-writeback_hit : 0
L1I-writeback_miss : 0
L1I-prefetch_requested : 11189113
L1I-prefetch_issued : 10850469
L1I-prefetch_useful : 2159362
L1I-prefetch_useless : 2639326
L1I-Avg_miss_latency : 15.9751

L2C TOTAL     ACCESS:    9657413  HIT:    9031943  MISS:     625470
L2C LOAD      ACCESS:    1356171  HIT:    1189243  MISS:     166928
L2C RFO       ACCESS:     246683  HIT:     170244  MISS:      76439
L2C PREFETCH  ACCESS:    7557877  HIT:    7181423  MISS:     376454
L2C WRITEBACK ACCESS:     496682  HIT:     491033  MISS:       5649
L2C PREFETCH  REQUESTED:    7739757  ISSUED:    7728300  USEFUL:      43528  USELESS:     331761
L2C AVERAGE MISS LATENCY: 38.6128 cycles
L2C

SHEET
L2C-total_access : 9657413
L2C-total_hit : 9031943
L2C-total_miss : 625470
L2C-load_access : 1356171
L2C-load_hit : 1189243
L2C-load_miss : 166928
L2C-rfo_access : 246683
L2C-rfo_hit : 170244
L2C-rfo_miss : 76439
L2C-prefetch_access : 7557877
L2C-prefetch_hit : 7181423
L2C-prefetch_miss : 376454
L2C-writeback_access : 496682
L2C-writeback_hit : 491033
L2C-writeback_miss : 5649
L2C-prefetch_requested : 7739757
L2C-prefetch_issued : 7728300
L2C-prefetch_useful : 43528
L2C-prefetch_useless : 331761
L2C-Avg_miss_latency : 38.6128

LLC TOTAL     ACCESS:    2633825  HIT:    2606206  MISS:      27619
LLC LOAD      ACCESS:     166849  HIT:     163577  MISS:       3272
LLC RFO       ACCESS:      76431  HIT:      65719  MISS:      10712
LLC PREFETCH  ACCESS:    2261816  HIT:    2248371  MISS:      13445
LLC WRITEBACK ACCESS:     128729  HIT:     128539  MISS:        190
LLC PREFETCH  REQUESTED:          0  ISSUED:          0  USEFUL:       1254  USELESS:      10828
LLC AVERAGE MISS LATENCY: 182.017 cycles
LLC

SHEET
LLC-total_access : 2633825
LLC-total_hit : 2606206
LLC-total_miss : 27619
LLC-load_access : 166849
LLC-load_hit : 163577
LLC-load_miss : 3272
LLC-rfo_access : 76431
LLC-rfo_hit : 65719
LLC-rfo_miss : 10712
LLC-prefetch_access : 2261816
LLC-prefetch_hit : 2248371
LLC-prefetch_miss : 13445
LLC-writeback_access : 128729
LLC-writeback_hit : 128539
LLC-writeback_miss : 190
LLC-prefetch_requested : 0
LLC-prefetch_issued : 0
LLC-prefetch_useful : 1254
LLC-prefetch_useless : 10828
LLC-Avg_miss_latency : 182.017

Major fault: 0 Minor fault: 2457



Printing Logs
statHeadFound: 1060517
statHeadMissing: 1195527
statStreamBufferHit: 12129748
statPrefetchEntryFound: 7253622
statCompactorMatch: 11741079
statStreamTrackerLookup: 14385792
statRecord: 2644713
statGetPointer: 2256044
statEnqueuePrefetch: 21663403
statPrefetchQueueIsFull: 183489
StreamBufferHitRate: 0.843176
Regions' size: 2215
next_region_correct: 1867805
next_region_wrong: 774675
next_region_correct_prediction: 0.706838
statStreamBufferLookups: 1035777024
statL1iLookups: 173307224
statCompactorLookups: 517888512
morteza: start

SHEET
mana_table_access_counter : 10081806
hobp_table_access_counter : 27040139
sab_access_counter : 19383370
srq_access_counter : 15644059

morteza: end
CPU 0 L1D next line prefetcher final stats

DRAM Statistics
 CHANNEL 0
 RQ ROW_BUFFER_HIT:       9013  ROW_BUFFER_MISS:      18412
 DBUS_CONGESTED:      19071
 WQ ROW_BUFFER_HIT:       1337  ROW_BUFFER_MISS:      11892  FULL:          0

 AVG_CONGESTED_CYCLE: 6

CPU 0 Branch Prediction Accuracy: 99.8142% MPKI: 0.34676 Average ROB Occupancy at Mispredict: 151.485

Branch types
NOT_BRANCH: 40668802 81.3376%
BRANCH_DIRECT_JUMP: 531700 1.0634%
BRANCH_INDIRECT: 199025 0.39805%
BRANCH_CONDITIONAL: 6211478 12.423%
BRANCH_DIRECT_CALL: 1010909 2.02182%
BRANCH_INDIRECT_CALL: 183501 0.367002%
BRANCH_RETURN: 1194412 2.38882%
BRANCH_OTHER: 0 0%

