Initialize SIGNATURE TABLE
ST_SET: 1
ST_WAY: 256
ST_TAG_BIT: 16
ST_TAG_MASK: ffff

Initialize PATTERN TABLE
PT_SET: 512
PT_WAY: 4
SIG_DELTA_BIT: 7
C_SIG_BIT: 4
C_DELTA_BIT: 4

Initialize PREFETCH FILTER
FILTER_SET: 1024
MANA initialize 
tds: 2 tdm: 2
size MANA SINGLE: 15.5 KB
size MANA NULTIPLE: 0 KB
size HOBPT: 0.703125 KB
size SRQ: 0.14502 KB
size SABs: 0.290039 KB
size prefetch queue: 0.453125 KB
total: 17.0913 KB

*** ChampSim Multicore Out-of-Order Simulator ***

Warmup Instructions: 50000000
Simulation Instructions: 50000000
Number of CPUs: 1
LLC sets: 2048
LLC ways: 16
Off-chip DRAM Size: 4096 MB Channels: 1 Width: 64-bit Data Rate: 3200 MT/s

CPU 0 runs /home/mbaradaran/ChampSim/dpc3_traces/server_014.champsimtrace.xz
CPU 0 L1D next line prefetcher
Heartbeat CPU 0 instructions: 10000003 cycles: 3519657 heartbeat IPC: 2.84119 cumulative IPC: 2.84119 (Simulation time: 0 hr 1 min 49 sec) 
Heartbeat CPU 0 instructions: 20000000 cycles: 7107148 heartbeat IPC: 2.78746 cumulative IPC: 2.81407 (Simulation time: 0 hr 3 min 47 sec) 
Heartbeat CPU 0 instructions: 30000001 cycles: 10648705 heartbeat IPC: 2.82362 cumulative IPC: 2.81724 (Simulation time: 0 hr 5 min 50 sec) 
Heartbeat CPU 0 instructions: 40000003 cycles: 14196928 heartbeat IPC: 2.81831 cumulative IPC: 2.81751 (Simulation time: 0 hr 7 min 48 sec) 
Heartbeat CPU 0 instructions: 50000000 cycles: 17745604 heartbeat IPC: 2.81795 cumulative IPC: 2.8176 (Simulation time: 0 hr 9 min 39 sec) 

Warmup complete CPU 0 instructions: 50000001 cycles: 17745605 (Simulation time: 0 hr 9 min 39 sec) 

Heartbeat CPU 0 instructions: 60000000 cycles: 24571206 heartbeat IPC: 1.46507 cumulative IPC: 1.46507 (Simulation time: 0 hr 11 min 17 sec) 
Heartbeat CPU 0 instructions: 70000002 cycles: 31391838 heartbeat IPC: 1.46614 cumulative IPC: 1.46561 (Simulation time: 0 hr 12 min 51 sec) 
*** Reached end of trace for Core: 0 Repeating trace: /home/mbaradaran/ChampSim/dpc3_traces/server_014.champsimtrace.xz
Heartbeat CPU 0 instructions: 80000001 cycles: 38504957 heartbeat IPC: 1.40585 cumulative IPC: 1.44513 (Simulation time: 0 hr 14 min 30 sec) 
Heartbeat CPU 0 instructions: 90000003 cycles: 46606885 heartbeat IPC: 1.23427 cumulative IPC: 1.38594 (Simulation time: 0 hr 16 min 7 sec) 
Heartbeat CPU 0 instructions: 100000001 cycles: 53626416 heartbeat IPC: 1.4246 cumulative IPC: 1.3935 (Simulation time: 0 hr 17 min 40 sec) 
Finished CPU 0 instructions: 50000000 cycles: 35880811 cumulative IPC: 1.3935 (Simulation time: 0 hr 17 min 40 sec) 

ChampSim completed all CPUs

Region of Interest Statistics

CPU 0 cumulative IPC: 1.3935 instructions: 50000000 cycles: 35880811

SHEET
IPC : 1.3935

L1D TOTAL     ACCESS:   22404213  HIT:   22333343  MISS:      70870
L1D LOAD      ACCESS:    7048773  HIT:    7021895  MISS:      26878
L1D RFO       ACCESS:    8431767  HIT:    8399693  MISS:      32074
L1D PREFETCH  ACCESS:    6923673  HIT:    6911755  MISS:      11918
L1D WRITEBACK ACCESS:          0  HIT:          0  MISS:          0
L1D PREFETCH  REQUESTED:    7053202  ISSUED:    6956263  USEFUL:       3358  USELESS:       8561
L1D AVERAGE MISS LATENCY: 231.829 cycles
L1D

SHEET
L1D-total_access : 22404213
L1D-total_hit : 22333343
L1D-total_miss : 70870
L1D-load_access : 7048773
L1D-load_hit : 7021895
L1D-load_miss : 26878
L1D-rfo_access : 8431767
L1D-rfo_hit : 8399693
L1D-rfo_miss : 32074
L1D-prefetch_access : 6923673
L1D-prefetch_hit : 6911755
L1D-prefetch_miss : 11918
L1D-writeback_access : 0
L1D-writeback_hit : 0
L1D-writeback_miss : 0
L1D-prefetch_requested : 7053202
L1D-prefetch_issued : 6956263
L1D-prefetch_useful : 3358
L1D-prefetch_useless : 8561
L1D-Avg_miss_latency : 231.829

L1I TOTAL     ACCESS:   21532507  HIT:   15510337  MISS:    6022170
L1I LOAD      ACCESS:    9548360  HIT:    8701268  MISS:     847092
L1I RFO       ACCESS:          0  HIT:          0  MISS:          0
L1I PREFETCH  ACCESS:   11984147  HIT:    6809069  MISS:    5175078
L1I WRITEBACK ACCESS:          0  HIT:          0  MISS:          0
L1I PREFETCH  REQUESTED:   13390813  ISSUED:   13166984  USEFUL:    3080228  USELESS:    2094851
L1I AVERAGE MISS LATENCY: 14.4656 cycles
L1I

SHEET
L1I-total_access : 21532507
L1I-total_hit : 15510337
L1I-total_miss : 6022170
L1I-load_access : 9548360
L1I-load_hit : 8701268
L1I-load_miss : 847092
L1I-rfo_access : 0
L1I-rfo_hit : 0
L1I-rfo_miss : 0
L1I-prefetch_access : 11984147
L1I-prefetch_hit : 6809069
L1I-prefetch_miss : 5175078
L1I-writeback_access : 0
L1I-writeback_hit : 0
L1I-writeback_miss : 0
L1I-prefetch_requested : 13390813
L1I-prefetch_issued : 13166984
L1I-prefetch_useful : 3080228
L1I-prefetch_useless : 2094851
L1I-Avg_miss_latency : 14.4656

L2C TOTAL     ACCESS:    8068127  HIT:    7995483  MISS:      72644
L2C LOAD      ACCESS:     662509  HIT:     641895  MISS:      20614
L2C RFO       ACCESS:      32021  HIT:       1081  MISS:      30940
L2C PREFETCH  ACCESS:    7335229  HIT:    7314161  MISS:      21068
L2C WRITEBACK ACCESS:      38368  HIT:      38346  MISS:         22
L2C PREFETCH  REQUESTED:    5854275  ISSUED:    5851961  USEFUL:       2267  USELESS:      18574
L2C AVERAGE MISS LATENCY: 257.494 cycles
L2C

SHEET
L2C-total_access : 8068127
L2C-total_hit : 7995483
L2C-total_miss : 72644
L2C-load_access : 662509
L2C-load_hit : 641895
L2C-load_miss : 20614
L2C-rfo_access : 32021
L2C-rfo_hit : 1081
L2C-rfo_miss : 30940
L2C-prefetch_access : 7335229
L2C-prefetch_hit : 7314161
L2C-prefetch_miss : 21068
L2C-writeback_access : 38368
L2C-writeback_hit : 38346
L2C-writeback_miss : 22
L2C-prefetch_requested : 5854275
L2C-prefetch_issued : 5851961
L2C-prefetch_useful : 2267
L2C-prefetch_useless : 18574
L2C-Avg_miss_latency : 257.494

LLC TOTAL     ACCESS:    1324246  HIT:    1257789  MISS:      66457
LLC LOAD      ACCESS:      19447  HIT:       6202  MISS:      13245
LLC RFO       ACCESS:      30940  HIT:       4080  MISS:      26860
LLC PREFETCH  ACCESS:    1238947  HIT:    1212703  MISS:      26244
LLC WRITEBACK ACCESS:      34912  HIT:      34804  MISS:        108
LLC PREFETCH  REQUESTED:          0  ISSUED:          0  USEFUL:       4968  USELESS:      21937
LLC AVERAGE MISS LATENCY: 312.472 cycles
LLC

SHEET
LLC-total_access : 1324246
LLC-total_hit : 1257789
LLC-total_miss : 66457
LLC-load_access : 19447
LLC-load_hit : 6202
LLC-load_miss : 13245
LLC-rfo_access : 30940
LLC-rfo_hit : 4080
LLC-rfo_miss : 26860
LLC-prefetch_access : 1238947
LLC-prefetch_hit : 1212703
LLC-prefetch_miss : 26244
LLC-writeback_access : 34912
LLC-writeback_hit : 34804
LLC-writeback_miss : 108
LLC-prefetch_requested : 0
LLC-prefetch_issued : 0
LLC-prefetch_useful : 4968
LLC-prefetch_useless : 21937
LLC-Avg_miss_latency : 312.472

Major fault: 0 Minor fault: 1911



Printing Logs
statHeadFound: 1116622
statHeadMissing: 501034
statStreamBufferHit: 12967335
statPrefetchEntryFound: 8526289
statCompactorMatch: 11411254
statStreamTrackerLookup: 14584991
statRecord: 3173737
statGetPointer: 1617656
statEnqueuePrefetch: 26028059
statPrefetchQueueIsFull: 2195
StreamBufferHitRate: 0.889088
Regions' size: 2705
next_region_correct: 2277478
next_region_wrong: 893536
next_region_correct_prediction: 0.718218
statStreamBufferLookups: 1050119352
statL1iLookups: 208224472
statCompactorLookups: 525059676
morteza: start

SHEET
mana_table_access_counter : 11702203
hobp_table_access_counter : 27694017
sab_access_counter : 21493624
srq_access_counter : 16940212

morteza: end
CPU 0 L1D next line prefetcher final stats

DRAM Statistics
 CHANNEL 0
 RQ ROW_BUFFER_HIT:      28782  ROW_BUFFER_MISS:      37565
 DBUS_CONGESTED:      68011
 WQ ROW_BUFFER_HIT:       8630  ROW_BUFFER_MISS:      24279  FULL:          0

 AVG_CONGESTED_CYCLE: 6

CPU 0 Branch Prediction Accuracy: 99.7719% MPKI: 0.38824 Average ROB Occupancy at Mispredict: 102.555

Branch types
NOT_BRANCH: 41488804 82.9776%
BRANCH_DIRECT_JUMP: 449415 0.89883%
BRANCH_INDIRECT: 2330 0.00466%
BRANCH_CONDITIONAL: 5470000 10.94%
BRANCH_DIRECT_CALL: 1172178 2.34436%
BRANCH_INDIRECT_CALL: 122383 0.244766%
BRANCH_RETURN: 1294544 2.58909%
BRANCH_OTHER: 0 0%

