Initialize SIGNATURE TABLE
ST_SET: 1
ST_WAY: 256
ST_TAG_BIT: 16
ST_TAG_MASK: ffff

Initialize PATTERN TABLE
PT_SET: 512
PT_WAY: 4
SIG_DELTA_BIT: 7
C_SIG_BIT: 4
C_DELTA_BIT: 4

Initialize PREFETCH FILTER
FILTER_SET: 1024
MANA initialize 
tds: 2 tdm: 2
size MANA SINGLE: 15.5 KB
size MANA NULTIPLE: 0 KB
size HOBPT: 0.703125 KB
size SRQ: 0.14502 KB
size SABs: 0.290039 KB
size prefetch queue: 0.453125 KB
total: 17.0913 KB

*** ChampSim Multicore Out-of-Order Simulator ***

Warmup Instructions: 50000000
Simulation Instructions: 50000000
Number of CPUs: 1
LLC sets: 2048
LLC ways: 16
Off-chip DRAM Size: 4096 MB Channels: 1 Width: 64-bit Data Rate: 3200 MT/s

CPU 0 runs /home/mbaradaran/ChampSim/dpc3_traces/server_037.champsimtrace.xz
CPU 0 L1D next line prefetcher
Heartbeat CPU 0 instructions: 10000001 cycles: 3327708 heartbeat IPC: 3.00507 cumulative IPC: 3.00507 (Simulation time: 0 hr 2 min 1 sec) 
Heartbeat CPU 0 instructions: 20000002 cycles: 6653564 heartbeat IPC: 3.00675 cumulative IPC: 3.00591 (Simulation time: 0 hr 3 min 43 sec) 
Heartbeat CPU 0 instructions: 30000003 cycles: 10026262 heartbeat IPC: 2.96499 cumulative IPC: 2.99214 (Simulation time: 0 hr 5 min 10 sec) 
Heartbeat CPU 0 instructions: 40000000 cycles: 13352623 heartbeat IPC: 3.00629 cumulative IPC: 2.99567 (Simulation time: 0 hr 6 min 30 sec) 
Heartbeat CPU 0 instructions: 50000003 cycles: 16678569 heartbeat IPC: 3.00666 cumulative IPC: 2.99786 (Simulation time: 0 hr 7 min 49 sec) 

Warmup complete CPU 0 instructions: 50000003 cycles: 16678569 (Simulation time: 0 hr 7 min 49 sec) 

Heartbeat CPU 0 instructions: 60000001 cycles: 23192157 heartbeat IPC: 1.53525 cumulative IPC: 1.53525 (Simulation time: 0 hr 9 min 7 sec) 
Heartbeat CPU 0 instructions: 70000000 cycles: 29801382 heartbeat IPC: 1.51304 cumulative IPC: 1.52406 (Simulation time: 0 hr 10 min 22 sec) 
Heartbeat CPU 0 instructions: 80000000 cycles: 36305511 heartbeat IPC: 1.53748 cumulative IPC: 1.52851 (Simulation time: 0 hr 11 min 38 sec) 
Heartbeat CPU 0 instructions: 90000002 cycles: 42826327 heartbeat IPC: 1.53355 cumulative IPC: 1.52977 (Simulation time: 0 hr 12 min 53 sec) 
*** Reached end of trace for Core: 0 Repeating trace: /home/mbaradaran/ChampSim/dpc3_traces/server_037.champsimtrace.xz
Heartbeat CPU 0 instructions: 100000000 cycles: 49357749 heartbeat IPC: 1.53106 cumulative IPC: 1.53003 (Simulation time: 0 hr 14 min 6 sec) 
Finished CPU 0 instructions: 50000001 cycles: 32679181 cumulative IPC: 1.53003 (Simulation time: 0 hr 14 min 6 sec) 

ChampSim completed all CPUs

Region of Interest Statistics

CPU 0 cumulative IPC: 1.53003 instructions: 50000001 cycles: 32679181

SHEET
IPC : 1.53003

L1D TOTAL     ACCESS:   18935869  HIT:   17956804  MISS:     979065
L1D LOAD      ACCESS:    6482192  HIT:    5992136  MISS:     490056
L1D RFO       ACCESS:    6203919  HIT:    6139107  MISS:      64812
L1D PREFETCH  ACCESS:    6249758  HIT:    5825561  MISS:     424197
L1D WRITEBACK ACCESS:          0  HIT:          0  MISS:          0
L1D PREFETCH  REQUESTED:    6516654  ISSUED:    6366798  USEFUL:     118417  USELESS:     305783
L1D AVERAGE MISS LATENCY: 28.8844 cycles
L1D

SHEET
L1D-total_access : 18935869
L1D-total_hit : 17956804
L1D-total_miss : 979065
L1D-load_access : 6482192
L1D-load_hit : 5992136
L1D-load_miss : 490056
L1D-rfo_access : 6203919
L1D-rfo_hit : 6139107
L1D-rfo_miss : 64812
L1D-prefetch_access : 6249758
L1D-prefetch_hit : 5825561
L1D-prefetch_miss : 424197
L1D-writeback_access : 0
L1D-writeback_hit : 0
L1D-writeback_miss : 0
L1D-prefetch_requested : 6516654
L1D-prefetch_issued : 6366798
L1D-prefetch_useful : 118417
L1D-prefetch_useless : 305783
L1D-Avg_miss_latency : 28.8844

L1I TOTAL     ACCESS:   18862334  HIT:   12217433  MISS:    6644901
L1I LOAD      ACCESS:    9290245  HIT:    8404007  MISS:     886238
L1I RFO       ACCESS:          0  HIT:          0  MISS:          0
L1I PREFETCH  ACCESS:    9572089  HIT:    3813426  MISS:    5758663
L1I WRITEBACK ACCESS:          0  HIT:          0  MISS:          0
L1I PREFETCH  REQUESTED:   10689020  ISSUED:   10362522  USEFUL:    3770123  USELESS:    1988557
L1I AVERAGE MISS LATENCY: 14.5178 cycles
L1I

SHEET
L1I-total_access : 18862334
L1I-total_hit : 12217433
L1I-total_miss : 6644901
L1I-load_access : 9290245
L1I-load_hit : 8404007
L1I-load_miss : 886238
L1I-rfo_access : 0
L1I-rfo_hit : 0
L1I-rfo_miss : 0
L1I-prefetch_access : 9572089
L1I-prefetch_hit : 3813426
L1I-prefetch_miss : 5758663
L1I-writeback_access : 0
L1I-writeback_hit : 0
L1I-writeback_miss : 0
L1I-prefetch_requested : 10689020
L1I-prefetch_issued : 10362522
L1I-prefetch_useful : 3770123
L1I-prefetch_useless : 1988557
L1I-Avg_miss_latency : 14.5178

L2C TOTAL     ACCESS:   11301344  HIT:   10998283  MISS:     303061
L2C LOAD      ACCESS:    1121771  HIT:     985885  MISS:     135886
L2C RFO       ACCESS:      64513  HIT:      37704  MISS:      26809
L2C PREFETCH  ACCESS:    9825435  HIT:    9685990  MISS:     139445
L2C WRITEBACK ACCESS:     289625  HIT:     288704  MISS:        921
L2C PREFETCH  REQUESTED:    9362806  ISSUED:    9314709  USEFUL:       7242  USELESS:     132054
L2C AVERAGE MISS LATENCY: 45.8928 cycles
L2C

SHEET
L2C-total_access : 11301344
L2C-total_hit : 10998283
L2C-total_miss : 303061
L2C-load_access : 1121771
L2C-load_hit : 985885
L2C-load_miss : 135886
L2C-rfo_access : 64513
L2C-rfo_hit : 37704
L2C-rfo_miss : 26809
L2C-prefetch_access : 9825435
L2C-prefetch_hit : 9685990
L2C-prefetch_miss : 139445
L2C-writeback_access : 289625
L2C-writeback_hit : 288704
L2C-writeback_miss : 921
L2C-prefetch_requested : 9362806
L2C-prefetch_issued : 9314709
L2C-prefetch_useful : 7242
L2C-prefetch_useless : 132054
L2C-Avg_miss_latency : 45.8928

LLC TOTAL     ACCESS:    1786634  HIT:    1736662  MISS:      49972
LLC LOAD      ACCESS:     135861  HIT:     122770  MISS:      13091
LLC RFO       ACCESS:      26808  HIT:      22214  MISS:       4594
LLC PREFETCH  ACCESS:    1488738  HIT:    1456899  MISS:      31839
LLC WRITEBACK ACCESS:     135227  HIT:     134779  MISS:        448
LLC PREFETCH  REQUESTED:          0  ISSUED:          0  USEFUL:       3452  USELESS:      27479
LLC AVERAGE MISS LATENCY: 164.174 cycles
LLC

SHEET
LLC-total_access : 1786634
LLC-total_hit : 1736662
LLC-total_miss : 49972
LLC-load_access : 135861
LLC-load_hit : 122770
LLC-load_miss : 13091
LLC-rfo_access : 26808
LLC-rfo_hit : 22214
LLC-rfo_miss : 4594
LLC-prefetch_access : 1488738
LLC-prefetch_hit : 1456899
LLC-prefetch_miss : 31839
LLC-writeback_access : 135227
LLC-writeback_hit : 134779
LLC-writeback_miss : 448
LLC-prefetch_requested : 0
LLC-prefetch_issued : 0
LLC-prefetch_useful : 3452
LLC-prefetch_useless : 27479
LLC-Avg_miss_latency : 164.174

Major fault: 0 Minor fault: 5652



Printing Logs
statHeadFound: 778688
statHeadMissing: 451039
statStreamBufferHit: 13281047
statPrefetchEntryFound: 6599608
statCompactorMatch: 11270960
statStreamTrackerLookup: 14510774
statRecord: 3239814
statGetPointer: 1229727
statEnqueuePrefetch: 20826651
statPrefetchQueueIsFull: 117605
StreamBufferHitRate: 0.915254
Regions' size: 1152
next_region_correct: 2586531
next_region_wrong: 652113
next_region_correct_prediction: 0.798646
statStreamBufferLookups: 1044775728
statL1iLookups: 166613208
statCompactorLookups: 522387864
morteza: start

SHEET
mana_table_access_counter : 9957009
hobp_table_access_counter : 24595338
sab_access_counter : 19880655
srq_access_counter : 16676091

morteza: end
CPU 0 L1D next line prefetcher final stats

DRAM Statistics
 CHANNEL 0
 RQ ROW_BUFFER_HIT:       8081  ROW_BUFFER_MISS:      41443
 DBUS_CONGESTED:      20951
 WQ ROW_BUFFER_HIT:       1187  ROW_BUFFER_MISS:      10519  FULL:          0

 AVG_CONGESTED_CYCLE: 4

CPU 0 Branch Prediction Accuracy: 99.913% MPKI: 0.15656 Average ROB Occupancy at Mispredict: 114.398

Branch types
NOT_BRANCH: 41001742 82.0035%
BRANCH_DIRECT_JUMP: 541941 1.08388%
BRANCH_INDIRECT: 59716 0.119432%
BRANCH_CONDITIONAL: 5916856 11.8337%
BRANCH_DIRECT_CALL: 1005466 2.01093%
BRANCH_INDIRECT_CALL: 234433 0.468866%
BRANCH_RETURN: 1239878 2.47976%
BRANCH_OTHER: 0 0%

