Initialize SIGNATURE TABLE
ST_SET: 1
ST_WAY: 256
ST_TAG_BIT: 16
ST_TAG_MASK: ffff

Initialize PATTERN TABLE
PT_SET: 512
PT_WAY: 4
SIG_DELTA_BIT: 7
C_SIG_BIT: 4
C_DELTA_BIT: 4

Initialize PREFETCH FILTER
FILTER_SET: 1024
MANA initialize 
tds: 2 tdm: 2
size MANA SINGLE: 15.5 KB
size MANA NULTIPLE: 0 KB
size HOBPT: 0.703125 KB
size SRQ: 0.14502 KB
size SABs: 0.290039 KB
size prefetch queue: 0.453125 KB
total: 17.0913 KB

*** ChampSim Multicore Out-of-Order Simulator ***

Warmup Instructions: 50000000
Simulation Instructions: 50000000
Number of CPUs: 1
LLC sets: 2048
LLC ways: 16
Off-chip DRAM Size: 4096 MB Channels: 1 Width: 64-bit Data Rate: 3200 MT/s

CPU 0 runs /home/mbaradaran/ChampSim/dpc3_traces/server_030.champsimtrace.xz
CPU 0 L1D next line prefetcher
Heartbeat CPU 0 instructions: 10000003 cycles: 3530809 heartbeat IPC: 2.83221 cumulative IPC: 2.83221 (Simulation time: 0 hr 2 min 1 sec) 
Heartbeat CPU 0 instructions: 20000003 cycles: 7060981 heartbeat IPC: 2.83272 cumulative IPC: 2.83247 (Simulation time: 0 hr 4 min 3 sec) 
Heartbeat CPU 0 instructions: 30000000 cycles: 10588980 heartbeat IPC: 2.83447 cumulative IPC: 2.83313 (Simulation time: 0 hr 6 min 1 sec) 
Heartbeat CPU 0 instructions: 40000002 cycles: 14117925 heartbeat IPC: 2.83371 cumulative IPC: 2.83328 (Simulation time: 0 hr 8 min 0 sec) 
Heartbeat CPU 0 instructions: 50000002 cycles: 17650921 heartbeat IPC: 2.83046 cumulative IPC: 2.83271 (Simulation time: 0 hr 10 min 2 sec) 

Warmup complete CPU 0 instructions: 50000002 cycles: 17650921 (Simulation time: 0 hr 10 min 2 sec) 

Heartbeat CPU 0 instructions: 60000000 cycles: 25231168 heartbeat IPC: 1.31922 cumulative IPC: 1.31922 (Simulation time: 0 hr 11 min 49 sec) 
Heartbeat CPU 0 instructions: 70000000 cycles: 32830435 heartbeat IPC: 1.31592 cumulative IPC: 1.31757 (Simulation time: 0 hr 13 min 45 sec) 
Heartbeat CPU 0 instructions: 80000001 cycles: 40393937 heartbeat IPC: 1.32214 cumulative IPC: 1.31909 (Simulation time: 0 hr 15 min 29 sec) 
*** Reached end of trace for Core: 0 Repeating trace: /home/mbaradaran/ChampSim/dpc3_traces/server_030.champsimtrace.xz
Heartbeat CPU 0 instructions: 90000002 cycles: 47982703 heartbeat IPC: 1.31774 cumulative IPC: 1.31875 (Simulation time: 0 hr 17 min 15 sec) 
Heartbeat CPU 0 instructions: 100000002 cycles: 55524741 heartbeat IPC: 1.3259 cumulative IPC: 1.32017 (Simulation time: 0 hr 18 min 58 sec) 
Finished CPU 0 instructions: 50000000 cycles: 37873820 cumulative IPC: 1.32017 (Simulation time: 0 hr 18 min 58 sec) 

ChampSim completed all CPUs

Region of Interest Statistics

CPU 0 cumulative IPC: 1.32017 instructions: 50000000 cycles: 37873820

SHEET
IPC : 1.32017

L1D TOTAL     ACCESS:   19804376  HIT:   17727571  MISS:    2076805
L1D LOAD      ACCESS:    7075834  HIT:    6024655  MISS:    1051179
L1D RFO       ACCESS:    6190820  HIT:    5904581  MISS:     286239
L1D PREFETCH  ACCESS:    6537722  HIT:    5798335  MISS:     739387
L1D WRITEBACK ACCESS:          0  HIT:          0  MISS:          0
L1D PREFETCH  REQUESTED:    7126927  ISSUED:    7005018  USEFUL:     183476  USELESS:     556002
L1D AVERAGE MISS LATENCY: 18.4114 cycles
L1D

SHEET
L1D-total_access : 19804376
L1D-total_hit : 17727571
L1D-total_miss : 2076805
L1D-load_access : 7075834
L1D-load_hit : 6024655
L1D-load_miss : 1051179
L1D-rfo_access : 6190820
L1D-rfo_hit : 5904581
L1D-rfo_miss : 286239
L1D-prefetch_access : 6537722
L1D-prefetch_hit : 5798335
L1D-prefetch_miss : 739387
L1D-writeback_access : 0
L1D-writeback_hit : 0
L1D-writeback_miss : 0
L1D-prefetch_requested : 7126927
L1D-prefetch_issued : 7005018
L1D-prefetch_useful : 183476
L1D-prefetch_useless : 556002
L1D-Avg_miss_latency : 18.4114

L1I TOTAL     ACCESS:   19602205  HIT:   13074564  MISS:    6527641
L1I LOAD      ACCESS:    9582133  HIT:    8499619  MISS:    1082514
L1I RFO       ACCESS:          0  HIT:          0  MISS:          0
L1I PREFETCH  ACCESS:   10020072  HIT:    4574945  MISS:    5445127
L1I WRITEBACK ACCESS:          0  HIT:          0  MISS:          0
L1I PREFETCH  REQUESTED:   11431617  ISSUED:   11002390  USEFUL:    2544046  USELESS:    2901146
L1I AVERAGE MISS LATENCY: 15.5968 cycles
L1I

SHEET
L1I-total_access : 19602205
L1I-total_hit : 13074564
L1I-total_miss : 6527641
L1I-load_access : 9582133
L1I-load_hit : 8499619
L1I-load_miss : 1082514
L1I-rfo_access : 0
L1I-rfo_hit : 0
L1I-rfo_miss : 0
L1I-prefetch_access : 10020072
L1I-prefetch_hit : 4574945
L1I-prefetch_miss : 5445127
L1I-writeback_access : 0
L1I-writeback_hit : 0
L1I-writeback_miss : 0
L1I-prefetch_requested : 11431617
L1I-prefetch_issued : 11002390
L1I-prefetch_useful : 2544046
L1I-prefetch_useless : 2901146
L1I-Avg_miss_latency : 15.5968

L2C TOTAL     ACCESS:   11679222  HIT:   11075688  MISS:     603534
L2C LOAD      ACCESS:    1711493  HIT:    1527657  MISS:     183836
L2C RFO       ACCESS:     283425  HIT:     234456  MISS:      48969
L2C PREFETCH  ACCESS:    9068965  HIT:    8703056  MISS:     365909
L2C WRITEBACK ACCESS:     615339  HIT:     610519  MISS:       4820
L2C PREFETCH  REQUESTED:    9787927  ISSUED:    9766027  USEFUL:      35295  USELESS:     329712
L2C AVERAGE MISS LATENCY: 34.4175 cycles
L2C

SHEET
L2C-total_access : 11679222
L2C-total_hit : 11075688
L2C-total_miss : 603534
L2C-load_access : 1711493
L2C-load_hit : 1527657
L2C-load_miss : 183836
L2C-rfo_access : 283425
L2C-rfo_hit : 234456
L2C-rfo_miss : 48969
L2C-prefetch_access : 9068965
L2C-prefetch_hit : 8703056
L2C-prefetch_miss : 365909
L2C-writeback_access : 615339
L2C-writeback_hit : 610519
L2C-writeback_miss : 4820
L2C-prefetch_requested : 9787927
L2C-prefetch_issued : 9766027
L2C-prefetch_useful : 35295
L2C-prefetch_useless : 329712
L2C-Avg_miss_latency : 34.4175

LLC TOTAL     ACCESS:    3010752  HIT:    2993900  MISS:      16852
LLC LOAD      ACCESS:     183738  HIT:     181250  MISS:       2488
LLC RFO       ACCESS:      48969  HIT:      47261  MISS:       1708
LLC PREFETCH  ACCESS:    2676914  HIT:    2664347  MISS:      12567
LLC WRITEBACK ACCESS:     101131  HIT:     101042  MISS:         89
LLC PREFETCH  REQUESTED:          0  ISSUED:          0  USEFUL:        854  USELESS:      10256
LLC AVERAGE MISS LATENCY: 142.762 cycles
LLC

SHEET
LLC-total_access : 3010752
LLC-total_hit : 2993900
LLC-total_miss : 16852
LLC-load_access : 183738
LLC-load_hit : 181250
LLC-load_miss : 2488
LLC-rfo_access : 48969
LLC-rfo_hit : 47261
LLC-rfo_miss : 1708
LLC-prefetch_access : 2676914
LLC-prefetch_hit : 2664347
LLC-prefetch_miss : 12567
LLC-writeback_access : 101131
LLC-writeback_hit : 101042
LLC-writeback_miss : 89
LLC-prefetch_requested : 0
LLC-prefetch_issued : 0
LLC-prefetch_useful : 854
LLC-prefetch_useless : 10256
LLC-Avg_miss_latency : 142.762

Major fault: 0 Minor fault: 2039



Printing Logs
statHeadFound: 1095550
statHeadMissing: 1043624
statStreamBufferHit: 12348109
statPrefetchEntryFound: 7322845
statCompactorMatch: 11755505
statStreamTrackerLookup: 14487283
statRecord: 2731778
statGetPointer: 2139174
statEnqueuePrefetch: 21763734
statPrefetchQueueIsFull: 190921
StreamBufferHitRate: 0.852341
Regions' size: 1975
next_region_correct: 1926154
next_region_wrong: 803631
next_region_correct_prediction: 0.705606
statStreamBufferLookups: 1043084376
statL1iLookups: 174109872
statCompactorLookups: 521542188
morteza: start

SHEET
mana_table_access_counter : 10245526
hobp_table_access_counter : 26997571
sab_access_counter : 19670954
srq_access_counter : 15928095

morteza: end
CPU 0 L1D next line prefetcher final stats

DRAM Statistics
 CHANNEL 0
 RQ ROW_BUFFER_HIT:       5873  ROW_BUFFER_MISS:      10890
 DBUS_CONGESTED:       5719
 WQ ROW_BUFFER_HIT:        144  ROW_BUFFER_MISS:       1889  FULL:          0

 AVG_CONGESTED_CYCLE: 5

CPU 0 Branch Prediction Accuracy: 99.8445% MPKI: 0.29148 Average ROB Occupancy at Mispredict: 136.796

Branch types
NOT_BRANCH: 40628027 81.2561%
BRANCH_DIRECT_JUMP: 490941 0.981882%
BRANCH_INDIRECT: 175853 0.351706%
BRANCH_CONDITIONAL: 6321412 12.6428%
BRANCH_DIRECT_CALL: 1002070 2.00414%
BRANCH_INDIRECT_CALL: 189783 0.379566%
BRANCH_RETURN: 1191850 2.3837%
BRANCH_OTHER: 0 0%

