Initialize SIGNATURE TABLE
ST_SET: 1
ST_WAY: 256
ST_TAG_BIT: 16
ST_TAG_MASK: ffff

Initialize PATTERN TABLE
PT_SET: 512
PT_WAY: 4
SIG_DELTA_BIT: 7
C_SIG_BIT: 4
C_DELTA_BIT: 4

Initialize PREFETCH FILTER
FILTER_SET: 1024
MANA initialize 
tds: 2 tdm: 2
size MANA SINGLE: 15.5 KB
size MANA NULTIPLE: 0 KB
size HOBPT: 0.703125 KB
size SRQ: 0.14502 KB
size SABs: 0.290039 KB
size prefetch queue: 0.453125 KB
total: 17.0913 KB

*** ChampSim Multicore Out-of-Order Simulator ***

Warmup Instructions: 50000000
Simulation Instructions: 50000000
Number of CPUs: 1
LLC sets: 2048
LLC ways: 16
Off-chip DRAM Size: 4096 MB Channels: 1 Width: 64-bit Data Rate: 3200 MT/s

CPU 0 runs /home/mbaradaran/ChampSim/dpc3_traces/server_029.champsimtrace.xz
CPU 0 L1D next line prefetcher
Heartbeat CPU 0 instructions: 10000001 cycles: 3512271 heartbeat IPC: 2.84716 cumulative IPC: 2.84716 (Simulation time: 0 hr 2 min 2 sec) 
Heartbeat CPU 0 instructions: 20000002 cycles: 7024858 heartbeat IPC: 2.8469 cumulative IPC: 2.84703 (Simulation time: 0 hr 4 min 8 sec) 
Heartbeat CPU 0 instructions: 30000000 cycles: 10539387 heartbeat IPC: 2.84533 cumulative IPC: 2.84647 (Simulation time: 0 hr 6 min 4 sec) 
Heartbeat CPU 0 instructions: 40000000 cycles: 14060528 heartbeat IPC: 2.83999 cumulative IPC: 2.84484 (Simulation time: 0 hr 8 min 14 sec) 
Heartbeat CPU 0 instructions: 50000000 cycles: 17580337 heartbeat IPC: 2.84106 cumulative IPC: 2.84409 (Simulation time: 0 hr 10 min 19 sec) 

Warmup complete CPU 0 instructions: 50000004 cycles: 17580338 (Simulation time: 0 hr 10 min 19 sec) 

Heartbeat CPU 0 instructions: 60000000 cycles: 25601595 heartbeat IPC: 1.24669 cumulative IPC: 1.24669 (Simulation time: 0 hr 12 min 13 sec) 
Heartbeat CPU 0 instructions: 70000003 cycles: 33781042 heartbeat IPC: 1.22258 cumulative IPC: 1.23451 (Simulation time: 0 hr 14 min 4 sec) 
Heartbeat CPU 0 instructions: 80000002 cycles: 41784259 heartbeat IPC: 1.2495 cumulative IPC: 1.23947 (Simulation time: 0 hr 16 min 6 sec) 
*** Reached end of trace for Core: 0 Repeating trace: /home/mbaradaran/ChampSim/dpc3_traces/server_029.champsimtrace.xz
Heartbeat CPU 0 instructions: 90000000 cycles: 49705834 heartbeat IPC: 1.26237 cumulative IPC: 1.24512 (Simulation time: 0 hr 17 min 56 sec) 
Heartbeat CPU 0 instructions: 100000003 cycles: 57622141 heartbeat IPC: 1.26322 cumulative IPC: 1.2487 (Simulation time: 0 hr 19 min 52 sec) 
Finished CPU 0 instructions: 50000003 cycles: 40041804 cumulative IPC: 1.2487 (Simulation time: 0 hr 19 min 52 sec) 

ChampSim completed all CPUs

Region of Interest Statistics

CPU 0 cumulative IPC: 1.2487 instructions: 50000003 cycles: 40041804

SHEET
IPC : 1.2487

L1D TOTAL     ACCESS:   19584102  HIT:   17486607  MISS:    2097495
L1D LOAD      ACCESS:    6985125  HIT:    5920162  MISS:    1064963
L1D RFO       ACCESS:    6126781  HIT:    5840524  MISS:     286257
L1D PREFETCH  ACCESS:    6472196  HIT:    5725921  MISS:     746275
L1D WRITEBACK ACCESS:          0  HIT:          0  MISS:          0
L1D PREFETCH  REQUESTED:    7048109  ISSUED:    6950981  USEFUL:     175766  USELESS:     570496
L1D AVERAGE MISS LATENCY: 21.0301 cycles
L1D

SHEET
L1D-total_access : 19584102
L1D-total_hit : 17486607
L1D-total_miss : 2097495
L1D-load_access : 6985125
L1D-load_hit : 5920162
L1D-load_miss : 1064963
L1D-rfo_access : 6126781
L1D-rfo_hit : 5840524
L1D-rfo_miss : 286257
L1D-prefetch_access : 6472196
L1D-prefetch_hit : 5725921
L1D-prefetch_miss : 746275
L1D-writeback_access : 0
L1D-writeback_hit : 0
L1D-writeback_miss : 0
L1D-prefetch_requested : 7048109
L1D-prefetch_issued : 6950981
L1D-prefetch_useful : 175766
L1D-prefetch_useless : 570496
L1D-Avg_miss_latency : 21.0301

L1I TOTAL     ACCESS:   19454078  HIT:   13137801  MISS:    6316277
L1I LOAD      ACCESS:    9607729  HIT:    8554037  MISS:    1053692
L1I RFO       ACCESS:          0  HIT:          0  MISS:          0
L1I PREFETCH  ACCESS:    9846349  HIT:    4583764  MISS:    5262585
L1I WRITEBACK ACCESS:          0  HIT:          0  MISS:          0
L1I PREFETCH  REQUESTED:   11048270  ISSUED:   10787921  USEFUL:    2530678  USELESS:    2731927
L1I AVERAGE MISS LATENCY: 15.5557 cycles
L1I

SHEET
L1I-total_access : 19454078
L1I-total_hit : 13137801
L1I-total_miss : 6316277
L1I-load_access : 9607729
L1I-load_hit : 8554037
L1I-load_miss : 1053692
L1I-rfo_access : 0
L1I-rfo_hit : 0
L1I-rfo_miss : 0
L1I-prefetch_access : 9846349
L1I-prefetch_hit : 4583764
L1I-prefetch_miss : 5262585
L1I-writeback_access : 0
L1I-writeback_hit : 0
L1I-writeback_miss : 0
L1I-prefetch_requested : 11048270
L1I-prefetch_issued : 10787921
L1I-prefetch_useful : 2530678
L1I-prefetch_useless : 2731927
L1I-Avg_miss_latency : 15.5557

L2C TOTAL     ACCESS:   11509025  HIT:   10914258  MISS:     594767
L2C LOAD      ACCESS:    1703391  HIT:    1520374  MISS:     183017
L2C RFO       ACCESS:     283742  HIT:     237279  MISS:      46463
L2C PREFETCH  ACCESS:    8911316  HIT:    8547069  MISS:     364247
L2C WRITEBACK ACCESS:     610576  HIT:     609536  MISS:       1040
L2C PREFETCH  REQUESTED:    9738200  ISSUED:    9706500  USEFUL:      28168  USELESS:     334973
L2C AVERAGE MISS LATENCY: 43.467 cycles
L2C

SHEET
L2C-total_access : 11509025
L2C-total_hit : 10914258
L2C-total_miss : 594767
L2C-load_access : 1703391
L2C-load_hit : 1520374
L2C-load_miss : 183017
L2C-rfo_access : 283742
L2C-rfo_hit : 237279
L2C-rfo_miss : 46463
L2C-prefetch_access : 8911316
L2C-prefetch_hit : 8547069
L2C-prefetch_miss : 364247
L2C-writeback_access : 610576
L2C-writeback_hit : 609536
L2C-writeback_miss : 1040
L2C-prefetch_requested : 9738200
L2C-prefetch_issued : 9706500
L2C-prefetch_useful : 28168
L2C-prefetch_useless : 334973
L2C-Avg_miss_latency : 43.467

LLC TOTAL     ACCESS:    2881658  HIT:    2812968  MISS:      68690
LLC LOAD      ACCESS:     182827  HIT:     165971  MISS:      16856
LLC RFO       ACCESS:      46460  HIT:      42861  MISS:       3599
LLC PREFETCH  ACCESS:    2553800  HIT:    2506109  MISS:      47691
LLC WRITEBACK ACCESS:      98571  HIT:      98027  MISS:        544
LLC PREFETCH  REQUESTED:          0  ISSUED:          0  USEFUL:       2555  USELESS:      45970
LLC AVERAGE MISS LATENCY: 156.851 cycles
LLC

SHEET
LLC-total_access : 2881658
LLC-total_hit : 2812968
LLC-total_miss : 68690
LLC-load_access : 182827
LLC-load_hit : 165971
LLC-load_miss : 16856
LLC-rfo_access : 46460
LLC-rfo_hit : 42861
LLC-rfo_miss : 3599
LLC-prefetch_access : 2553800
LLC-prefetch_hit : 2506109
LLC-prefetch_miss : 47691
LLC-writeback_access : 98571
LLC-writeback_hit : 98027
LLC-writeback_miss : 544
LLC-prefetch_requested : 0
LLC-prefetch_issued : 0
LLC-prefetch_useful : 2555
LLC-prefetch_useless : 45970
LLC-Avg_miss_latency : 156.851

Major fault: 0 Minor fault: 5918



Printing Logs
statHeadFound: 1067670
statHeadMissing: 1073956
statStreamBufferHit: 12280261
statPrefetchEntryFound: 7162792
statCompactorMatch: 11747478
statStreamTrackerLookup: 14421887
statRecord: 2674409
statGetPointer: 2141626
statEnqueuePrefetch: 21196531
statPrefetchQueueIsFull: 202454
StreamBufferHitRate: 0.851502
Regions' size: 1855
next_region_correct: 1893459
next_region_wrong: 779077
next_region_correct_prediction: 0.708488
statStreamBufferLookups: 1038375864
statL1iLookups: 169572248
statCompactorLookups: 519187932
morteza: start

SHEET
mana_table_access_counter : 10039637
hobp_table_access_counter : 26629385
sab_access_counter : 19443053
srq_access_counter : 15820416

morteza: end
CPU 0 L1D next line prefetcher final stats

DRAM Statistics
 CHANNEL 0
 RQ ROW_BUFFER_HIT:      19979  ROW_BUFFER_MISS:      48151
 DBUS_CONGESTED:      29186
 WQ ROW_BUFFER_HIT:        571  ROW_BUFFER_MISS:       3892  FULL:          0

 AVG_CONGESTED_CYCLE: 5

CPU 0 Branch Prediction Accuracy: 99.7245% MPKI: 0.51862 Average ROB Occupancy at Mispredict: 131.505

Branch types
NOT_BRANCH: 40586582 81.1732%
BRANCH_DIRECT_JUMP: 525208 1.05042%
BRANCH_INDIRECT: 166359 0.332718%
BRANCH_CONDITIONAL: 6373091 12.7462%
BRANCH_DIRECT_CALL: 989263 1.97853%
BRANCH_INDIRECT_CALL: 184984 0.369968%
BRANCH_RETURN: 1174250 2.3485%
BRANCH_OTHER: 0 0%

