Initialize SIGNATURE TABLE
ST_SET: 1
ST_WAY: 256
ST_TAG_BIT: 16
ST_TAG_MASK: ffff

Initialize PATTERN TABLE
PT_SET: 512
PT_WAY: 4
SIG_DELTA_BIT: 7
C_SIG_BIT: 4
C_DELTA_BIT: 4

Initialize PREFETCH FILTER
FILTER_SET: 1024
MANA initialize 
tds: 2 tdm: 2
size MANA SINGLE: 15.5 KB
size MANA NULTIPLE: 0 KB
size HOBPT: 0.703125 KB
size SRQ: 0.14502 KB
size SABs: 0.290039 KB
size prefetch queue: 0.453125 KB
total: 17.0913 KB

*** ChampSim Multicore Out-of-Order Simulator ***

Warmup Instructions: 50000000
Simulation Instructions: 50000000
Number of CPUs: 1
LLC sets: 2048
LLC ways: 16
Off-chip DRAM Size: 4096 MB Channels: 1 Width: 64-bit Data Rate: 3200 MT/s

CPU 0 runs /home/mbaradaran/ChampSim/dpc3_traces/server_017.champsimtrace.xz
CPU 0 L1D next line prefetcher
Heartbeat CPU 0 instructions: 10000001 cycles: 3632258 heartbeat IPC: 2.75311 cumulative IPC: 2.75311 (Simulation time: 0 hr 1 min 55 sec) 
Heartbeat CPU 0 instructions: 20000000 cycles: 7262112 heartbeat IPC: 2.75493 cumulative IPC: 2.75402 (Simulation time: 0 hr 3 min 58 sec) 
Heartbeat CPU 0 instructions: 30000002 cycles: 10898277 heartbeat IPC: 2.75015 cumulative IPC: 2.75273 (Simulation time: 0 hr 6 min 0 sec) 
Heartbeat CPU 0 instructions: 40000000 cycles: 14529488 heartbeat IPC: 2.7539 cumulative IPC: 2.75302 (Simulation time: 0 hr 7 min 55 sec) 
Heartbeat CPU 0 instructions: 50000001 cycles: 18172023 heartbeat IPC: 2.74534 cumulative IPC: 2.75148 (Simulation time: 0 hr 9 min 47 sec) 

Warmup complete CPU 0 instructions: 50000001 cycles: 18172023 (Simulation time: 0 hr 9 min 47 sec) 

Heartbeat CPU 0 instructions: 60000002 cycles: 35604822 heartbeat IPC: 0.573631 cumulative IPC: 0.573631 (Simulation time: 0 hr 12 min 31 sec) 
Heartbeat CPU 0 instructions: 70000000 cycles: 53173543 heartbeat IPC: 0.569193 cumulative IPC: 0.571404 (Simulation time: 0 hr 15 min 7 sec) 
Heartbeat CPU 0 instructions: 80000000 cycles: 70490677 heartbeat IPC: 0.577463 cumulative IPC: 0.573409 (Simulation time: 0 hr 17 min 48 sec) 
Heartbeat CPU 0 instructions: 90000002 cycles: 93684979 heartbeat IPC: 0.43114 cumulative IPC: 0.52971 (Simulation time: 0 hr 20 min 28 sec) 
Heartbeat CPU 0 instructions: 100000003 cycles: 113560197 heartbeat IPC: 0.503139 cumulative IPC: 0.524174 (Simulation time: 0 hr 23 min 4 sec) 
Finished CPU 0 instructions: 50000002 cycles: 95388174 cumulative IPC: 0.524174 (Simulation time: 0 hr 23 min 4 sec) 

ChampSim completed all CPUs

Region of Interest Statistics

CPU 0 cumulative IPC: 0.524174 instructions: 50000002 cycles: 95388174

SHEET
IPC : 0.524174

L1D TOTAL     ACCESS:   18475846  HIT:   16310250  MISS:    2165596
L1D LOAD      ACCESS:    7078346  HIT:    6334617  MISS:     743729
L1D RFO       ACCESS:    5511167  HIT:    4652086  MISS:     859081
L1D PREFETCH  ACCESS:    5886333  HIT:    5323547  MISS:     562786
L1D WRITEBACK ACCESS:          0  HIT:          0  MISS:          0
L1D PREFETCH  REQUESTED:    7117782  ISSUED:    6927835  USEFUL:     200379  USELESS:     362468
L1D AVERAGE MISS LATENCY: 173.512 cycles
L1D

SHEET
L1D-total_access : 18475846
L1D-total_hit : 16310250
L1D-total_miss : 2165596
L1D-load_access : 7078346
L1D-load_hit : 6334617
L1D-load_miss : 743729
L1D-rfo_access : 5511167
L1D-rfo_hit : 4652086
L1D-rfo_miss : 859081
L1D-prefetch_access : 5886333
L1D-prefetch_hit : 5323547
L1D-prefetch_miss : 562786
L1D-writeback_access : 0
L1D-writeback_hit : 0
L1D-writeback_miss : 0
L1D-prefetch_requested : 7117782
L1D-prefetch_issued : 6927835
L1D-prefetch_useful : 200379
L1D-prefetch_useless : 362468
L1D-Avg_miss_latency : 173.512

L1I TOTAL     ACCESS:   16351002  HIT:   12582612  MISS:    3768390
L1I LOAD      ACCESS:    9852483  HIT:    9426631  MISS:     425852
L1I RFO       ACCESS:          0  HIT:          0  MISS:          0
L1I PREFETCH  ACCESS:    6498519  HIT:    3155981  MISS:    3342538
L1I WRITEBACK ACCESS:          0  HIT:          0  MISS:          0
L1I PREFETCH  REQUESTED:    7051942  ISSUED:    6868156  USEFUL:    2453506  USELESS:     889068
L1I AVERAGE MISS LATENCY: 16.7046 cycles
L1I

SHEET
L1I-total_access : 16351002
L1I-total_hit : 12582612
L1I-total_miss : 3768390
L1I-load_access : 9852483
L1I-load_hit : 9426631
L1I-load_miss : 425852
L1I-rfo_access : 0
L1I-rfo_hit : 0
L1I-rfo_miss : 0
L1I-prefetch_access : 6498519
L1I-prefetch_hit : 3155981
L1I-prefetch_miss : 3342538
L1I-writeback_access : 0
L1I-writeback_hit : 0
L1I-writeback_miss : 0
L1I-prefetch_requested : 7051942
L1I-prefetch_issued : 6868156
L1I-prefetch_useful : 2453506
L1I-prefetch_useless : 889068
L1I-Avg_miss_latency : 16.7046

L2C TOTAL     ACCESS:    8546739  HIT:    6711315  MISS:    1835424
L2C LOAD      ACCESS:     860094  HIT:     525458  MISS:     334636
L2C RFO       ACCESS:     858689  HIT:      17048  MISS:     841641
L2C PREFETCH  ACCESS:    5705072  HIT:    5048003  MISS:     657069
L2C WRITEBACK ACCESS:    1122884  HIT:    1120806  MISS:       2078
L2C PREFETCH  REQUESTED:    5814480  ISSUED:    5807711  USEFUL:      29355  USELESS:     628066
L2C AVERAGE MISS LATENCY: 206.906 cycles
L2C

SHEET
L2C-total_access : 8546739
L2C-total_hit : 6711315
L2C-total_miss : 1835424
L2C-load_access : 860094
L2C-load_hit : 525458
L2C-load_miss : 334636
L2C-rfo_access : 858689
L2C-rfo_hit : 17048
L2C-rfo_miss : 841641
L2C-prefetch_access : 5705072
L2C-prefetch_hit : 5048003
L2C-prefetch_miss : 657069
L2C-writeback_access : 1122884
L2C-writeback_hit : 1120806
L2C-writeback_miss : 2078
L2C-prefetch_requested : 5814480
L2C-prefetch_issued : 5807711
L2C-prefetch_useful : 29355
L2C-prefetch_useless : 628066
L2C-Avg_miss_latency : 206.906

LLC TOTAL     ACCESS:    4438397  HIT:    2910440  MISS:    1527957
LLC LOAD      ACCESS:     334557  HIT:     176029  MISS:     158528
LLC RFO       ACCESS:     841612  HIT:     123165  MISS:     718447
LLC PREFETCH  ACCESS:    2200218  HIT:    1551286  MISS:     648932
LLC WRITEBACK ACCESS:    1062010  HIT:    1059960  MISS:       2050
LLC PREFETCH  REQUESTED:          0  ISSUED:          0  USEFUL:      48377  USELESS:     599615
LLC AVERAGE MISS LATENCY: 262.922 cycles
LLC

SHEET
LLC-total_access : 4438397
LLC-total_hit : 2910440
LLC-total_miss : 1527957
LLC-load_access : 334557
LLC-load_hit : 176029
LLC-load_miss : 158528
LLC-rfo_access : 841612
LLC-rfo_hit : 123165
LLC-rfo_miss : 718447
LLC-prefetch_access : 2200218
LLC-prefetch_hit : 1551286
LLC-prefetch_miss : 648932
LLC-writeback_access : 1062010
LLC-writeback_hit : 1059960
LLC-writeback_miss : 2050
LLC-prefetch_requested : 0
LLC-prefetch_issued : 0
LLC-prefetch_useful : 48377
LLC-prefetch_useless : 599615
LLC-Avg_miss_latency : 262.922

Major fault: 0 Minor fault: 24694



Printing Logs
statHeadFound: 508602
statHeadMissing: 526638
statStreamBufferHit: 12168292
statPrefetchEntryFound: 4578103
statCompactorMatch: 10975358
statStreamTrackerLookup: 13203532
statRecord: 2228174
statGetPointer: 1035240
statEnqueuePrefetch: 14389866
statPrefetchQueueIsFull: 87857
StreamBufferHitRate: 0.921594
Regions' size: 1201
next_region_correct: 1880242
next_region_wrong: 346713
next_region_correct_prediction: 0.844311
statStreamBufferLookups: 950654304
statL1iLookups: 115118928
statCompactorLookups: 475327152
morteza: start

SHEET
mana_table_access_counter : 6894116
hobp_table_access_counter : 17719576
sab_access_counter : 16746395
srq_access_counter : 14351073

morteza: end
CPU 0 L1D next line prefetcher final stats

DRAM Statistics
 CHANNEL 0
 RQ ROW_BUFFER_HIT:     385898  ROW_BUFFER_MISS:    1139855
 DBUS_CONGESTED:    1470345
 WQ ROW_BUFFER_HIT:     245231  ROW_BUFFER_MISS:     632808  FULL:          0

 AVG_CONGESTED_CYCLE: 6

CPU 0 Branch Prediction Accuracy: 99.2833% MPKI: 1.20568 Average ROB Occupancy at Mispredict: 179.861

Branch types
NOT_BRANCH: 41588350 83.1767%
BRANCH_DIRECT_JUMP: 464501 0.929002%
BRANCH_INDIRECT: 45704 0.091408%
BRANCH_CONDITIONAL: 6147409 12.2948%
BRANCH_DIRECT_CALL: 675450 1.3509%
BRANCH_INDIRECT_CALL: 201532 0.403064%
BRANCH_RETURN: 876985 1.75397%
BRANCH_OTHER: 0 0%

