Initialize SIGNATURE TABLE
ST_SET: 1
ST_WAY: 256
ST_TAG_BIT: 16
ST_TAG_MASK: ffff

Initialize PATTERN TABLE
PT_SET: 512
PT_WAY: 4
SIG_DELTA_BIT: 7
C_SIG_BIT: 4
C_DELTA_BIT: 4

Initialize PREFETCH FILTER
FILTER_SET: 1024
MANA initialize 
tds: 2 tdm: 2
size MANA SINGLE: 15.5 KB
size MANA NULTIPLE: 0 KB
size HOBPT: 0.703125 KB
size SRQ: 0.14502 KB
size SABs: 0.290039 KB
size prefetch queue: 0.453125 KB
total: 17.0913 KB

*** ChampSim Multicore Out-of-Order Simulator ***

Warmup Instructions: 50000000
Simulation Instructions: 50000000
Number of CPUs: 1
LLC sets: 2048
LLC ways: 16
Off-chip DRAM Size: 4096 MB Channels: 1 Width: 64-bit Data Rate: 3200 MT/s

CPU 0 runs /home/mbaradaran/ChampSim/dpc3_traces/server_019.champsimtrace.xz
CPU 0 L1D next line prefetcher
Heartbeat CPU 0 instructions: 10000002 cycles: 3632060 heartbeat IPC: 2.75326 cumulative IPC: 2.75326 (Simulation time: 0 hr 2 min 0 sec) 
Heartbeat CPU 0 instructions: 20000003 cycles: 7265280 heartbeat IPC: 2.75238 cumulative IPC: 2.75282 (Simulation time: 0 hr 4 min 9 sec) 
Heartbeat CPU 0 instructions: 30000002 cycles: 10897045 heartbeat IPC: 2.75348 cumulative IPC: 2.75304 (Simulation time: 0 hr 6 min 16 sec) 
Heartbeat CPU 0 instructions: 40000002 cycles: 14540811 heartbeat IPC: 2.74441 cumulative IPC: 2.75088 (Simulation time: 0 hr 8 min 19 sec) 
Heartbeat CPU 0 instructions: 50000001 cycles: 18173726 heartbeat IPC: 2.75261 cumulative IPC: 2.75122 (Simulation time: 0 hr 10 min 27 sec) 

Warmup complete CPU 0 instructions: 50000001 cycles: 18173726 (Simulation time: 0 hr 10 min 27 sec) 

Heartbeat CPU 0 instructions: 60000000 cycles: 37901839 heartbeat IPC: 0.506891 cumulative IPC: 0.506891 (Simulation time: 0 hr 13 min 14 sec) 
Heartbeat CPU 0 instructions: 70000002 cycles: 61391772 heartbeat IPC: 0.425714 cumulative IPC: 0.46277 (Simulation time: 0 hr 15 min 50 sec) 
Heartbeat CPU 0 instructions: 80000001 cycles: 81873263 heartbeat IPC: 0.488246 cumulative IPC: 0.470961 (Simulation time: 0 hr 18 min 23 sec) 
Heartbeat CPU 0 instructions: 90000002 cycles: 99317992 heartbeat IPC: 0.573239 cumulative IPC: 0.492949 (Simulation time: 0 hr 21 min 2 sec) 
Heartbeat CPU 0 instructions: 100000002 cycles: 116740858 heartbeat IPC: 0.573958 cumulative IPC: 0.507268 (Simulation time: 0 hr 23 min 20 sec) 
Finished CPU 0 instructions: 50000001 cycles: 98567132 cumulative IPC: 0.507268 (Simulation time: 0 hr 23 min 20 sec) 

ChampSim completed all CPUs

Region of Interest Statistics

CPU 0 cumulative IPC: 0.507268 instructions: 50000001 cycles: 98567132

SHEET
IPC : 0.507268

L1D TOTAL     ACCESS:   18385707  HIT:   16162030  MISS:    2223677
L1D LOAD      ACCESS:    7018862  HIT:    6267113  MISS:     751749
L1D RFO       ACCESS:    5511356  HIT:    4609377  MISS:     901979
L1D PREFETCH  ACCESS:    5855489  HIT:    5285540  MISS:     569949
L1D WRITEBACK ACCESS:          0  HIT:          0  MISS:          0
L1D PREFETCH  REQUESTED:    7057953  ISSUED:    6872383  USEFUL:     200666  USELESS:     369191
L1D AVERAGE MISS LATENCY: 185.645 cycles
L1D

SHEET
L1D-total_access : 18385707
L1D-total_hit : 16162030
L1D-total_miss : 2223677
L1D-load_access : 7018862
L1D-load_hit : 6267113
L1D-load_miss : 751749
L1D-rfo_access : 5511356
L1D-rfo_hit : 4609377
L1D-rfo_miss : 901979
L1D-prefetch_access : 5855489
L1D-prefetch_hit : 5285540
L1D-prefetch_miss : 569949
L1D-writeback_access : 0
L1D-writeback_hit : 0
L1D-writeback_miss : 0
L1D-prefetch_requested : 7057953
L1D-prefetch_issued : 6872383
L1D-prefetch_useful : 200666
L1D-prefetch_useless : 369191
L1D-Avg_miss_latency : 185.645

L1I TOTAL     ACCESS:   16176374  HIT:   12566447  MISS:    3609927
L1I LOAD      ACCESS:    9791731  HIT:    9394911  MISS:     396820
L1I RFO       ACCESS:          0  HIT:          0  MISS:          0
L1I PREFETCH  ACCESS:    6384643  HIT:    3171536  MISS:    3213107
L1I WRITEBACK ACCESS:          0  HIT:          0  MISS:          0
L1I PREFETCH  REQUESTED:    6925193  ISSUED:    6758401  USEFUL:    2424597  USELESS:     788474
L1I AVERAGE MISS LATENCY: 17.1406 cycles
L1I

SHEET
L1I-total_access : 16176374
L1I-total_hit : 12566447
L1I-total_miss : 3609927
L1I-load_access : 9791731
L1I-load_hit : 9394911
L1I-load_miss : 396820
L1I-rfo_access : 0
L1I-rfo_hit : 0
L1I-rfo_miss : 0
L1I-prefetch_access : 6384643
L1I-prefetch_hit : 3171536
L1I-prefetch_miss : 3213107
L1I-writeback_access : 0
L1I-writeback_hit : 0
L1I-writeback_miss : 0
L1I-prefetch_requested : 6925193
L1I-prefetch_issued : 6758401
L1I-prefetch_useful : 2424597
L1I-prefetch_useless : 788474
L1I-Avg_miss_latency : 17.1406

L2C TOTAL     ACCESS:    8407235  HIT:    6526384  MISS:    1880851
L2C LOAD      ACCESS:     842547  HIT:     502788  MISS:     339759
L2C RFO       ACCESS:     901535  HIT:      18156  MISS:     883379
L2C PREFETCH  ACCESS:    5488480  HIT:    4833290  MISS:     655190
L2C WRITEBACK ACCESS:    1174673  HIT:    1172150  MISS:       2523
L2C PREFETCH  REQUESTED:    5740188  ISSUED:    5731342  USEFUL:      28731  USELESS:     625017
L2C AVERAGE MISS LATENCY: 221.932 cycles
L2C

SHEET
L2C-total_access : 8407235
L2C-total_hit : 6526384
L2C-total_miss : 1880851
L2C-load_access : 842547
L2C-load_hit : 502788
L2C-load_miss : 339759
L2C-rfo_access : 901535
L2C-rfo_hit : 18156
L2C-rfo_miss : 883379
L2C-prefetch_access : 5488480
L2C-prefetch_hit : 4833290
L2C-prefetch_miss : 655190
L2C-writeback_access : 1174673
L2C-writeback_hit : 1172150
L2C-writeback_miss : 2523
L2C-prefetch_requested : 5740188
L2C-prefetch_issued : 5731342
L2C-prefetch_useful : 28731
L2C-prefetch_useless : 625017
L2C-Avg_miss_latency : 221.932

LLC TOTAL     ACCESS:    4529042  HIT:    2933579  MISS:    1595463
LLC LOAD      ACCESS:     339656  HIT:     171628  MISS:     168028
LLC RFO       ACCESS:     883374  HIT:     116370  MISS:     767004
LLC PREFETCH  ACCESS:    2194917  HIT:    1536669  MISS:     658248
LLC WRITEBACK ACCESS:    1111095  HIT:    1108912  MISS:       2183
LLC PREFETCH  REQUESTED:          0  ISSUED:          0  USEFUL:      51263  USELESS:     605926
LLC AVERAGE MISS LATENCY: 276.504 cycles
LLC

SHEET
LLC-total_access : 4529042
LLC-total_hit : 2933579
LLC-total_miss : 1595463
LLC-load_access : 339656
LLC-load_hit : 171628
LLC-load_miss : 168028
LLC-rfo_access : 883374
LLC-rfo_hit : 116370
LLC-rfo_miss : 767004
LLC-prefetch_access : 2194917
LLC-prefetch_hit : 1536669
LLC-prefetch_miss : 658248
LLC-writeback_access : 1111095
LLC-writeback_hit : 1108912
LLC-writeback_miss : 2183
LLC-prefetch_requested : 0
LLC-prefetch_issued : 0
LLC-prefetch_useful : 51263
LLC-prefetch_useless : 605926
LLC-Avg_miss_latency : 276.504

Major fault: 0 Minor fault: 25691



Printing Logs
statHeadFound: 499867
statHeadMissing: 1150082
statStreamBufferHit: 11558539
statPrefetchEntryFound: 4615584
statCompactorMatch: 10969738
statStreamTrackerLookup: 13208488
statRecord: 2238750
statGetPointer: 1649949
statEnqueuePrefetch: 14496890
statPrefetchQueueIsFull: 38129
StreamBufferHitRate: 0.875084
Regions' size: 1399
next_region_correct: 1889264
next_region_wrong: 348069
next_region_correct_prediction: 0.844427
statStreamBufferLookups: 951011136
statL1iLookups: 115975120
statCompactorLookups: 475505568
morteza: start

SHEET
mana_table_access_counter : 6892445
hobp_table_access_counter : 20208470
sab_access_counter : 16174123
srq_access_counter : 14385110

morteza: end
CPU 0 L1D next line prefetcher final stats

DRAM Statistics
 CHANNEL 0
 RQ ROW_BUFFER_HIT:     395719  ROW_BUFFER_MISS:    1197298
 DBUS_CONGESTED:    1584610
 WQ ROW_BUFFER_HIT:     255605  ROW_BUFFER_MISS:     679733  FULL:          0

 AVG_CONGESTED_CYCLE: 6

CPU 0 Branch Prediction Accuracy: 99.2186% MPKI: 1.32192 Average ROB Occupancy at Mispredict: 176.807

Branch types
NOT_BRANCH: 41540785 83.0816%
BRANCH_DIRECT_JUMP: 462384 0.924768%
BRANCH_INDIRECT: 45460 0.09092%
BRANCH_CONDITIONAL: 6209281 12.4186%
BRANCH_DIRECT_CALL: 666241 1.33248%
BRANCH_INDIRECT_CALL: 204728 0.409456%
BRANCH_RETURN: 870978 1.74196%
BRANCH_OTHER: 0 0%

