Initialize SIGNATURE TABLE
ST_SET: 1
ST_WAY: 256
ST_TAG_BIT: 16
ST_TAG_MASK: ffff

Initialize PATTERN TABLE
PT_SET: 512
PT_WAY: 4
SIG_DELTA_BIT: 7
C_SIG_BIT: 4
C_DELTA_BIT: 4

Initialize PREFETCH FILTER
FILTER_SET: 1024
MANA initialize 
tds: 2 tdm: 2
size MANA SINGLE: 15.5 KB
size MANA NULTIPLE: 0 KB
size HOBPT: 0.703125 KB
size SRQ: 0.14502 KB
size SABs: 0.290039 KB
size prefetch queue: 0.453125 KB
total: 17.0913 KB

*** ChampSim Multicore Out-of-Order Simulator ***

Warmup Instructions: 50000000
Simulation Instructions: 50000000
Number of CPUs: 1
LLC sets: 2048
LLC ways: 16
Off-chip DRAM Size: 4096 MB Channels: 1 Width: 64-bit Data Rate: 3200 MT/s

CPU 0 runs /home/mbaradaran/ChampSim/dpc3_traces/server_023.champsimtrace.xz
CPU 0 L1D next line prefetcher
Heartbeat CPU 0 instructions: 10000000 cycles: 3518496 heartbeat IPC: 2.84212 cumulative IPC: 2.84212 (Simulation time: 0 hr 1 min 54 sec) 
Heartbeat CPU 0 instructions: 20000000 cycles: 7036396 heartbeat IPC: 2.8426 cumulative IPC: 2.84236 (Simulation time: 0 hr 3 min 42 sec) 
Heartbeat CPU 0 instructions: 30000001 cycles: 10547703 heartbeat IPC: 2.84794 cumulative IPC: 2.84422 (Simulation time: 0 hr 5 min 41 sec) 
Heartbeat CPU 0 instructions: 40000003 cycles: 14065132 heartbeat IPC: 2.84299 cumulative IPC: 2.84391 (Simulation time: 0 hr 7 min 45 sec) 
Heartbeat CPU 0 instructions: 50000001 cycles: 17584173 heartbeat IPC: 2.84168 cumulative IPC: 2.84347 (Simulation time: 0 hr 9 min 41 sec) 

Warmup complete CPU 0 instructions: 50000001 cycles: 17584173 (Simulation time: 0 hr 9 min 41 sec) 

Heartbeat CPU 0 instructions: 60000002 cycles: 24956365 heartbeat IPC: 1.35645 cumulative IPC: 1.35645 (Simulation time: 0 hr 11 min 28 sec) 
Heartbeat CPU 0 instructions: 70000002 cycles: 32560274 heartbeat IPC: 1.31511 cumulative IPC: 1.33546 (Simulation time: 0 hr 13 min 18 sec) 
Heartbeat CPU 0 instructions: 80000000 cycles: 40025450 heartbeat IPC: 1.33955 cumulative IPC: 1.33682 (Simulation time: 0 hr 15 min 8 sec) 
Heartbeat CPU 0 instructions: 90000000 cycles: 47454426 heartbeat IPC: 1.34608 cumulative IPC: 1.33912 (Simulation time: 0 hr 16 min 48 sec) 
Heartbeat CPU 0 instructions: 100000001 cycles: 54930552 heartbeat IPC: 1.33759 cumulative IPC: 1.33882 (Simulation time: 0 hr 18 min 40 sec) 
Finished CPU 0 instructions: 50000000 cycles: 37346379 cumulative IPC: 1.33882 (Simulation time: 0 hr 18 min 40 sec) 

ChampSim completed all CPUs

Region of Interest Statistics

CPU 0 cumulative IPC: 1.33882 instructions: 50000000 cycles: 37346379

SHEET
IPC : 1.33882

L1D TOTAL     ACCESS:   20058175  HIT:   18590833  MISS:    1467342
L1D LOAD      ACCESS:    7188745  HIT:    6529900  MISS:     658845
L1D RFO       ACCESS:    5997575  HIT:    5736131  MISS:     261444
L1D PREFETCH  ACCESS:    6871855  HIT:    6324802  MISS:     547053
L1D WRITEBACK ACCESS:          0  HIT:          0  MISS:          0
L1D PREFETCH  REQUESTED:    7240248  ISSUED:    7122400  USEFUL:     132244  USELESS:     414816
L1D AVERAGE MISS LATENCY: 24.0466 cycles
L1D

SHEET
L1D-total_access : 20058175
L1D-total_hit : 18590833
L1D-total_miss : 1467342
L1D-load_access : 7188745
L1D-load_hit : 6529900
L1D-load_miss : 658845
L1D-rfo_access : 5997575
L1D-rfo_hit : 5736131
L1D-rfo_miss : 261444
L1D-prefetch_access : 6871855
L1D-prefetch_hit : 6324802
L1D-prefetch_miss : 547053
L1D-writeback_access : 0
L1D-writeback_hit : 0
L1D-writeback_miss : 0
L1D-prefetch_requested : 7240248
L1D-prefetch_issued : 7122400
L1D-prefetch_useful : 132244
L1D-prefetch_useless : 414816
L1D-Avg_miss_latency : 24.0466

L1I TOTAL     ACCESS:   18762578  HIT:   13266043  MISS:    5496535
L1I LOAD      ACCESS:    9289764  HIT:    8380020  MISS:     909744
L1I RFO       ACCESS:          0  HIT:          0  MISS:          0
L1I PREFETCH  ACCESS:    9472814  HIT:    4886023  MISS:    4586791
L1I WRITEBACK ACCESS:          0  HIT:          0  MISS:          0
L1I PREFETCH  REQUESTED:   10681184  ISSUED:   10369930  USEFUL:    2102602  USELESS:    2484203
L1I AVERAGE MISS LATENCY: 15.8711 cycles
L1I

SHEET
L1I-total_access : 18762578
L1I-total_hit : 13266043
L1I-total_miss : 5496535
L1I-load_access : 9289764
L1I-load_hit : 8380020
L1I-load_miss : 909744
L1I-rfo_access : 0
L1I-rfo_hit : 0
L1I-rfo_miss : 0
L1I-prefetch_access : 9472814
L1I-prefetch_hit : 4886023
L1I-prefetch_miss : 4586791
L1I-writeback_access : 0
L1I-writeback_hit : 0
L1I-writeback_miss : 0
L1I-prefetch_requested : 10681184
L1I-prefetch_issued : 10369930
L1I-prefetch_useful : 2102602
L1I-prefetch_useless : 2484203
L1I-Avg_miss_latency : 15.8711

L2C TOTAL     ACCESS:    9268784  HIT:    8661606  MISS:     607178
L2C LOAD      ACCESS:    1315468  HIT:    1146420  MISS:     169048
L2C RFO       ACCESS:     259337  HIT:     169026  MISS:      90311
L2C PREFETCH  ACCESS:    7194753  HIT:    6850064  MISS:     344689
L2C WRITEBACK ACCESS:     499226  HIT:     496096  MISS:       3130
L2C PREFETCH  REQUESTED:    6974055  ISSUED:    6967141  USEFUL:      44417  USELESS:     299304
L2C AVERAGE MISS LATENCY: 43.0799 cycles
L2C

SHEET
L2C-total_access : 9268784
L2C-total_hit : 8661606
L2C-total_miss : 607178
L2C-load_access : 1315468
L2C-load_hit : 1146420
L2C-load_miss : 169048
L2C-rfo_access : 259337
L2C-rfo_hit : 169026
L2C-rfo_miss : 90311
L2C-prefetch_access : 7194753
L2C-prefetch_hit : 6850064
L2C-prefetch_miss : 344689
L2C-writeback_access : 499226
L2C-writeback_hit : 496096
L2C-writeback_miss : 3130
L2C-prefetch_requested : 6974055
L2C-prefetch_issued : 6967141
L2C-prefetch_useful : 44417
L2C-prefetch_useless : 299304
L2C-Avg_miss_latency : 43.0799

LLC TOTAL     ACCESS:    2403345  HIT:    2355634  MISS:      47711
LLC LOAD      ACCESS:     168871  HIT:     162419  MISS:       6452
LLC RFO       ACCESS:      90308  HIT:      72425  MISS:      17883
LLC PREFETCH  ACCESS:    2003592  HIT:    1980465  MISS:      23127
LLC WRITEBACK ACCESS:     140574  HIT:     140325  MISS:        249
LLC PREFETCH  REQUESTED:          0  ISSUED:          0  USEFUL:       2432  USELESS:      20180
LLC AVERAGE MISS LATENCY: 182.905 cycles
LLC

SHEET
LLC-total_access : 2403345
LLC-total_hit : 2355634
LLC-total_miss : 47711
LLC-load_access : 168871
LLC-load_hit : 162419
LLC-load_miss : 6452
LLC-rfo_access : 90308
LLC-rfo_hit : 72425
LLC-rfo_miss : 17883
LLC-prefetch_access : 2003592
LLC-prefetch_hit : 1980465
LLC-prefetch_miss : 23127
LLC-writeback_access : 140574
LLC-writeback_hit : 140325
LLC-writeback_miss : 249
LLC-prefetch_requested : 0
LLC-prefetch_issued : 0
LLC-prefetch_useful : 2432
LLC-prefetch_useless : 20180
LLC-Avg_miss_latency : 182.905

Major fault: 0 Minor fault: 2766



Printing Logs
statHeadFound: 1022852
statHeadMissing: 1148155
statStreamBufferHit: 11982770
statPrefetchEntryFound: 6880583
statCompactorMatch: 11819119
statStreamTrackerLookup: 14153777
statRecord: 2334658
statGetPointer: 2171007
statEnqueuePrefetch: 20780403
statPrefetchQueueIsFull: 143382
StreamBufferHitRate: 0.846613
Regions' size: 2800
next_region_correct: 1578340
next_region_wrong: 753500
next_region_correct_prediction: 0.676865
statStreamBufferLookups: 1019071944
statL1iLookups: 166243224
statCompactorLookups: 509535972
morteza: start

SHEET
mana_table_access_counter : 9358605
hobp_table_access_counter : 25046625
sab_access_counter : 18863353
srq_access_counter : 15159523

morteza: end
CPU 0 L1D next line prefetcher final stats

DRAM Statistics
 CHANNEL 0
 RQ ROW_BUFFER_HIT:      14605  ROW_BUFFER_MISS:      32845
 DBUS_CONGESTED:      31345
 WQ ROW_BUFFER_HIT:       2555  ROW_BUFFER_MISS:      19154  FULL:          0

 AVG_CONGESTED_CYCLE: 6

CPU 0 Branch Prediction Accuracy: 99.6798% MPKI: 0.58608 Average ROB Occupancy at Mispredict: 116.535

Branch types
NOT_BRANCH: 40848124 81.6962%
BRANCH_DIRECT_JUMP: 548369 1.09674%
BRANCH_INDIRECT: 189802 0.379604%
BRANCH_CONDITIONAL: 6372726 12.7455%
BRANCH_DIRECT_CALL: 862206 1.72441%
BRANCH_INDIRECT_CALL: 158147 0.316294%
BRANCH_RETURN: 1020343 2.04069%
BRANCH_OTHER: 0 0%

