Initialize SIGNATURE TABLE
ST_SET: 1
ST_WAY: 256
ST_TAG_BIT: 16
ST_TAG_MASK: ffff

Initialize PATTERN TABLE
PT_SET: 512
PT_WAY: 4
SIG_DELTA_BIT: 7
C_SIG_BIT: 4
C_DELTA_BIT: 4

Initialize PREFETCH FILTER
FILTER_SET: 1024
MANA initialize 
tds: 2 tdm: 2
size MANA SINGLE: 15.5 KB
size MANA NULTIPLE: 0 KB
size HOBPT: 0.703125 KB
size SRQ: 0.14502 KB
size SABs: 0.290039 KB
size prefetch queue: 0.453125 KB
total: 17.0913 KB

*** ChampSim Multicore Out-of-Order Simulator ***

Warmup Instructions: 50000000
Simulation Instructions: 50000000
Number of CPUs: 1
LLC sets: 2048
LLC ways: 16
Off-chip DRAM Size: 4096 MB Channels: 1 Width: 64-bit Data Rate: 3200 MT/s

CPU 0 runs /home/mbaradaran/ChampSim/dpc3_traces/server_027.champsimtrace.xz
CPU 0 L1D next line prefetcher
Heartbeat CPU 0 instructions: 10000001 cycles: 3549280 heartbeat IPC: 2.81747 cumulative IPC: 2.81747 (Simulation time: 0 hr 1 min 54 sec) 
Heartbeat CPU 0 instructions: 20000001 cycles: 7103073 heartbeat IPC: 2.81389 cumulative IPC: 2.81568 (Simulation time: 0 hr 3 min 57 sec) 
Heartbeat CPU 0 instructions: 30000002 cycles: 10651718 heartbeat IPC: 2.81798 cumulative IPC: 2.81645 (Simulation time: 0 hr 5 min 54 sec) 
Heartbeat CPU 0 instructions: 40000000 cycles: 14205612 heartbeat IPC: 2.81381 cumulative IPC: 2.81579 (Simulation time: 0 hr 7 min 51 sec) 
Heartbeat CPU 0 instructions: 50000000 cycles: 17752650 heartbeat IPC: 2.81925 cumulative IPC: 2.81648 (Simulation time: 0 hr 9 min 50 sec) 

Warmup complete CPU 0 instructions: 50000004 cycles: 17752651 (Simulation time: 0 hr 9 min 50 sec) 

Heartbeat CPU 0 instructions: 60000002 cycles: 25387279 heartbeat IPC: 1.30982 cumulative IPC: 1.30982 (Simulation time: 0 hr 11 min 40 sec) 
Heartbeat CPU 0 instructions: 70000003 cycles: 32933289 heartbeat IPC: 1.3252 cumulative IPC: 1.31747 (Simulation time: 0 hr 13 min 25 sec) 
Heartbeat CPU 0 instructions: 80000002 cycles: 40522161 heartbeat IPC: 1.31772 cumulative IPC: 1.31755 (Simulation time: 0 hr 15 min 7 sec) 
Heartbeat CPU 0 instructions: 90000001 cycles: 48150614 heartbeat IPC: 1.31088 cumulative IPC: 1.31588 (Simulation time: 0 hr 16 min 53 sec) 
Heartbeat CPU 0 instructions: 100000002 cycles: 55669778 heartbeat IPC: 1.32994 cumulative IPC: 1.31867 (Simulation time: 0 hr 18 min 43 sec) 
Finished CPU 0 instructions: 50000002 cycles: 37917128 cumulative IPC: 1.31867 (Simulation time: 0 hr 18 min 43 sec) 

ChampSim completed all CPUs

Region of Interest Statistics

CPU 0 cumulative IPC: 1.31867 instructions: 50000002 cycles: 37917128

SHEET
IPC : 1.31867

L1D TOTAL     ACCESS:   20689504  HIT:   19087003  MISS:    1602501
L1D LOAD      ACCESS:    7332888  HIT:    6643823  MISS:     689065
L1D RFO       ACCESS:    6308379  HIT:    6021923  MISS:     286456
L1D PREFETCH  ACCESS:    7048237  HIT:    6421257  MISS:     626980
L1D WRITEBACK ACCESS:          0  HIT:          0  MISS:          0
L1D PREFETCH  REQUESTED:    7378546  ISSUED:    7256817  USEFUL:     152072  USELESS:     474920
L1D AVERAGE MISS LATENCY: 23.3514 cycles
L1D

SHEET
L1D-total_access : 20689504
L1D-total_hit : 19087003
L1D-total_miss : 1602501
L1D-load_access : 7332888
L1D-load_hit : 6643823
L1D-load_miss : 689065
L1D-rfo_access : 6308379
L1D-rfo_hit : 6021923
L1D-rfo_miss : 286456
L1D-prefetch_access : 7048237
L1D-prefetch_hit : 6421257
L1D-prefetch_miss : 626980
L1D-writeback_access : 0
L1D-writeback_hit : 0
L1D-writeback_miss : 0
L1D-prefetch_requested : 7378546
L1D-prefetch_issued : 7256817
L1D-prefetch_useful : 152072
L1D-prefetch_useless : 474920
L1D-Avg_miss_latency : 23.3514

L1I TOTAL     ACCESS:   19365419  HIT:   12962873  MISS:    6402546
L1I LOAD      ACCESS:    9295687  HIT:    8196851  MISS:    1098836
L1I RFO       ACCESS:          0  HIT:          0  MISS:          0
L1I PREFETCH  ACCESS:   10069732  HIT:    4766022  MISS:    5303710
L1I WRITEBACK ACCESS:          0  HIT:          0  MISS:          0
L1I PREFETCH  REQUESTED:   11398124  ISSUED:   11046265  USEFUL:    2353727  USELESS:    2949975
L1I AVERAGE MISS LATENCY: 15.973 cycles
L1I

SHEET
L1I-total_access : 19365419
L1I-total_hit : 12962873
L1I-total_miss : 6402546
L1I-load_access : 9295687
L1I-load_hit : 8196851
L1I-load_miss : 1098836
L1I-rfo_access : 0
L1I-rfo_hit : 0
L1I-rfo_miss : 0
L1I-prefetch_access : 10069732
L1I-prefetch_hit : 4766022
L1I-prefetch_miss : 5303710
L1I-writeback_access : 0
L1I-writeback_hit : 0
L1I-writeback_miss : 0
L1I-prefetch_requested : 11398124
L1I-prefetch_issued : 11046265
L1I-prefetch_useful : 2353727
L1I-prefetch_useless : 2949975
L1I-Avg_miss_latency : 15.973

L2C TOTAL     ACCESS:   10647063  HIT:    9924822  MISS:     722241
L2C LOAD      ACCESS:    1521875  HIT:    1320867  MISS:     201008
L2C RFO       ACCESS:     283693  HIT:     196215  MISS:      87478
L2C PREFETCH  ACCESS:    8282245  HIT:    7853753  MISS:     428492
L2C WRITEBACK ACCESS:     559250  HIT:     553987  MISS:       5263
L2C PREFETCH  REQUESTED:    8017545  ISSUED:    8008925  USEFUL:      58347  USELESS:     368995
L2C AVERAGE MISS LATENCY: 38.7812 cycles
L2C

SHEET
L2C-total_access : 10647063
L2C-total_hit : 9924822
L2C-total_miss : 722241
L2C-load_access : 1521875
L2C-load_hit : 1320867
L2C-load_miss : 201008
L2C-rfo_access : 283693
L2C-rfo_hit : 196215
L2C-rfo_miss : 87478
L2C-prefetch_access : 8282245
L2C-prefetch_hit : 7853753
L2C-prefetch_miss : 428492
L2C-writeback_access : 559250
L2C-writeback_hit : 553987
L2C-writeback_miss : 5263
L2C-prefetch_requested : 8017545
L2C-prefetch_issued : 8008925
L2C-prefetch_useful : 58347
L2C-prefetch_useless : 368995
L2C-Avg_miss_latency : 38.7812

LLC TOTAL     ACCESS:    2795688  HIT:    2764705  MISS:      30983
LLC LOAD      ACCESS:     200837  HIT:     197349  MISS:       3488
LLC RFO       ACCESS:      87475  HIT:      73561  MISS:      13914
LLC PREFETCH  ACCESS:    2365860  HIT:    2352448  MISS:      13412
LLC WRITEBACK ACCESS:     141516  HIT:     141347  MISS:        169
LLC PREFETCH  REQUESTED:          0  ISSUED:          0  USEFUL:       1315  USELESS:      11714
LLC AVERAGE MISS LATENCY: 185.677 cycles
LLC

SHEET
LLC-total_access : 2795688
LLC-total_hit : 2764705
LLC-total_miss : 30983
LLC-load_access : 200837
LLC-load_hit : 197349
LLC-load_miss : 3488
LLC-rfo_access : 87475
LLC-rfo_hit : 73561
LLC-rfo_miss : 13914
LLC-prefetch_access : 2365860
LLC-prefetch_hit : 2352448
LLC-prefetch_miss : 13412
LLC-writeback_access : 141516
LLC-writeback_hit : 141347
LLC-writeback_miss : 169
LLC-prefetch_requested : 0
LLC-prefetch_issued : 0
LLC-prefetch_useful : 1315
LLC-prefetch_useless : 11714
LLC-Avg_miss_latency : 185.677

Major fault: 0 Minor fault: 2477



Printing Logs
statHeadFound: 1097035
statHeadMissing: 1301975
statStreamBufferHit: 11807273
statPrefetchEntryFound: 7238519
statCompactorMatch: 11666096
statStreamTrackerLookup: 14206283
statRecord: 2540187
statGetPointer: 2399010
statEnqueuePrefetch: 21741658
statPrefetchQueueIsFull: 172739
StreamBufferHitRate: 0.83113
Regions' size: 2224
next_region_correct: 1713845
next_region_wrong: 824100
next_region_correct_prediction: 0.675288
statStreamBufferLookups: 1022852376
statL1iLookups: 173933264
statCompactorLookups: 511426188
morteza: start

SHEET
mana_table_access_counter : 9951427
hobp_table_access_counter : 27168046
sab_access_counter : 19045792
srq_access_counter : 15398292

morteza: end
CPU 0 L1D next line prefetcher final stats

DRAM Statistics
 CHANNEL 0
 RQ ROW_BUFFER_HIT:      10712  ROW_BUFFER_MISS:      20102
 DBUS_CONGESTED:      22486
 WQ ROW_BUFFER_HIT:       1633  ROW_BUFFER_MISS:      14012  FULL:          0

 AVG_CONGESTED_CYCLE: 6

CPU 0 Branch Prediction Accuracy: 99.8082% MPKI: 0.35064 Average ROB Occupancy at Mispredict: 133.028

Branch types
NOT_BRANCH: 40857493 81.715%
BRANCH_DIRECT_JUMP: 526635 1.05327%
BRANCH_INDIRECT: 205902 0.411804%
BRANCH_CONDITIONAL: 6184048 12.3681%
BRANCH_DIRECT_CALL: 938466 1.87693%
BRANCH_INDIRECT_CALL: 174486 0.348972%
BRANCH_RETURN: 1112959 2.22592%
BRANCH_OTHER: 0 0%

