Initialize SIGNATURE TABLE
ST_SET: 1
ST_WAY: 256
ST_TAG_BIT: 16
ST_TAG_MASK: ffff

Initialize PATTERN TABLE
PT_SET: 512
PT_WAY: 4
SIG_DELTA_BIT: 7
C_SIG_BIT: 4
C_DELTA_BIT: 4

Initialize PREFETCH FILTER
FILTER_SET: 1024
MANA initialize 
tds: 2 tdm: 2
size MANA SINGLE: 15.5 KB
size MANA NULTIPLE: 0 KB
size HOBPT: 0.703125 KB
size SRQ: 0.14502 KB
size SABs: 0.290039 KB
size prefetch queue: 0.453125 KB
total: 17.0913 KB

*** ChampSim Multicore Out-of-Order Simulator ***

Warmup Instructions: 50000000
Simulation Instructions: 50000000
Number of CPUs: 1
LLC sets: 2048
LLC ways: 16
Off-chip DRAM Size: 4096 MB Channels: 1 Width: 64-bit Data Rate: 3200 MT/s

CPU 0 runs /home/mbaradaran/ChampSim/dpc3_traces/server_034.champsimtrace.xz
CPU 0 L1D next line prefetcher
Heartbeat CPU 0 instructions: 10000000 cycles: 3336727 heartbeat IPC: 2.99695 cumulative IPC: 2.99695 (Simulation time: 0 hr 1 min 58 sec) 
Heartbeat CPU 0 instructions: 20000002 cycles: 6665786 heartbeat IPC: 3.00385 cumulative IPC: 3.0004 (Simulation time: 0 hr 3 min 53 sec) 
Heartbeat CPU 0 instructions: 30000003 cycles: 10002861 heartbeat IPC: 2.99664 cumulative IPC: 2.99914 (Simulation time: 0 hr 5 min 52 sec) 
Heartbeat CPU 0 instructions: 40000001 cycles: 13338082 heartbeat IPC: 2.9983 cumulative IPC: 2.99893 (Simulation time: 0 hr 7 min 53 sec) 
Heartbeat CPU 0 instructions: 50000000 cycles: 16672863 heartbeat IPC: 2.9987 cumulative IPC: 2.99889 (Simulation time: 0 hr 9 min 50 sec) 

Warmup complete CPU 0 instructions: 50000002 cycles: 16672864 (Simulation time: 0 hr 9 min 50 sec) 

Heartbeat CPU 0 instructions: 60000002 cycles: 23083977 heartbeat IPC: 1.55979 cumulative IPC: 1.55979 (Simulation time: 0 hr 11 min 36 sec) 
Heartbeat CPU 0 instructions: 70000003 cycles: 29805250 heartbeat IPC: 1.48781 cumulative IPC: 1.52295 (Simulation time: 0 hr 13 min 25 sec) 
Heartbeat CPU 0 instructions: 80000002 cycles: 36231987 heartbeat IPC: 1.556 cumulative IPC: 1.53381 (Simulation time: 0 hr 15 min 11 sec) 
Heartbeat CPU 0 instructions: 90000002 cycles: 42655151 heartbeat IPC: 1.55687 cumulative IPC: 1.53951 (Simulation time: 0 hr 16 min 59 sec) 
Heartbeat CPU 0 instructions: 100000002 cycles: 49104199 heartbeat IPC: 1.55062 cumulative IPC: 1.54172 (Simulation time: 0 hr 18 min 41 sec) 
Finished CPU 0 instructions: 50000000 cycles: 32431335 cumulative IPC: 1.54172 (Simulation time: 0 hr 18 min 41 sec) 

ChampSim completed all CPUs

Region of Interest Statistics

CPU 0 cumulative IPC: 1.54172 instructions: 50000000 cycles: 32431335

SHEET
IPC : 1.54172

L1D TOTAL     ACCESS:   18722653  HIT:   17298510  MISS:    1424143
L1D LOAD      ACCESS:    6364417  HIT:    5708483  MISS:     655934
L1D RFO       ACCESS:    6170755  HIT:    6027344  MISS:     143411
L1D PREFETCH  ACCESS:    6187481  HIT:    5562683  MISS:     624798
L1D WRITEBACK ACCESS:          0  HIT:          0  MISS:          0
L1D PREFETCH  REQUESTED:    6401322  ISSUED:    6321510  USEFUL:     140236  USELESS:     484528
L1D AVERAGE MISS LATENCY: 17.8777 cycles
L1D

SHEET
L1D-total_access : 18722653
L1D-total_hit : 17298510
L1D-total_miss : 1424143
L1D-load_access : 6364417
L1D-load_hit : 5708483
L1D-load_miss : 655934
L1D-rfo_access : 6170755
L1D-rfo_hit : 6027344
L1D-rfo_miss : 143411
L1D-prefetch_access : 6187481
L1D-prefetch_hit : 5562683
L1D-prefetch_miss : 624798
L1D-writeback_access : 0
L1D-writeback_hit : 0
L1D-writeback_miss : 0
L1D-prefetch_requested : 6401322
L1D-prefetch_issued : 6321510
L1D-prefetch_useful : 140236
L1D-prefetch_useless : 484528
L1D-Avg_miss_latency : 17.8777

L1I TOTAL     ACCESS:   18983433  HIT:   13061963  MISS:    5921470
L1I LOAD      ACCESS:    9562377  HIT:    8730100  MISS:     832277
L1I RFO       ACCESS:          0  HIT:          0  MISS:          0
L1I PREFETCH  ACCESS:    9421056  HIT:    4331863  MISS:    5089193
L1I WRITEBACK ACCESS:          0  HIT:          0  MISS:          0
L1I PREFETCH  REQUESTED:   10587339  ISSUED:   10392166  USEFUL:    3036768  USELESS:    2052431
L1I AVERAGE MISS LATENCY: 14.6314 cycles
L1I

SHEET
L1I-total_access : 18983433
L1I-total_hit : 13061963
L1I-total_miss : 5921470
L1I-load_access : 9562377
L1I-load_hit : 8730100
L1I-load_miss : 832277
L1I-rfo_access : 0
L1I-rfo_hit : 0
L1I-rfo_miss : 0
L1I-prefetch_access : 9421056
L1I-prefetch_hit : 4331863
L1I-prefetch_miss : 5089193
L1I-writeback_access : 0
L1I-writeback_hit : 0
L1I-writeback_miss : 0
L1I-prefetch_requested : 10587339
L1I-prefetch_issued : 10392166
L1I-prefetch_useful : 3036768
L1I-prefetch_useless : 2052431
L1I-Avg_miss_latency : 14.6314

L2C TOTAL     ACCESS:    9639525  HIT:    9494725  MISS:     144800
L2C LOAD      ACCESS:    1275935  HIT:    1228287  MISS:      47648
L2C RFO       ACCESS:     141602  HIT:     133072  MISS:       8530
L2C PREFETCH  ACCESS:    7871016  HIT:    7783618  MISS:      87398
L2C WRITEBACK ACCESS:     350972  HIT:     349748  MISS:       1224
L2C PREFETCH  REQUESTED:    7866405  ISSUED:    7851782  USEFUL:       4393  USELESS:      81831
L2C AVERAGE MISS LATENCY: 38.1076 cycles
L2C

SHEET
L2C-total_access : 9639525
L2C-total_hit : 9494725
L2C-total_miss : 144800
L2C-load_access : 1275935
L2C-load_hit : 1228287
L2C-load_miss : 47648
L2C-rfo_access : 141602
L2C-rfo_hit : 133072
L2C-rfo_miss : 8530
L2C-prefetch_access : 7871016
L2C-prefetch_hit : 7783618
L2C-prefetch_miss : 87398
L2C-writeback_access : 350972
L2C-writeback_hit : 349748
L2C-writeback_miss : 1224
L2C-prefetch_requested : 7866405
L2C-prefetch_issued : 7851782
L2C-prefetch_useful : 4393
L2C-prefetch_useless : 81831
L2C-Avg_miss_latency : 38.1076

LLC TOTAL     ACCESS:    2149032  HIT:    2137648  MISS:      11384
LLC LOAD      ACCESS:      47549  HIT:      44965  MISS:       2584
LLC RFO       ACCESS:       8530  HIT:       8324  MISS:        206
LLC PREFETCH  ACCESS:    2050850  HIT:    2042312  MISS:       8538
LLC WRITEBACK ACCESS:      42103  HIT:      42047  MISS:         56
LLC PREFETCH  REQUESTED:          0  ISSUED:          0  USEFUL:       2839  USELESS:       3369
LLC AVERAGE MISS LATENCY: 146.531 cycles
LLC

SHEET
LLC-total_access : 2149032
LLC-total_hit : 2137648
LLC-total_miss : 11384
LLC-load_access : 47549
LLC-load_hit : 44965
LLC-load_miss : 2584
LLC-rfo_access : 8530
LLC-rfo_hit : 8324
LLC-rfo_miss : 206
LLC-prefetch_access : 2050850
LLC-prefetch_hit : 2042312
LLC-prefetch_miss : 8538
LLC-writeback_access : 42103
LLC-writeback_hit : 42047
LLC-writeback_miss : 56
LLC-prefetch_requested : 0
LLC-prefetch_issued : 0
LLC-prefetch_useful : 2839
LLC-prefetch_useless : 3369
LLC-Avg_miss_latency : 146.531

Major fault: 0 Minor fault: 1170



Printing Logs
statHeadFound: 825236
statHeadMissing: 489046
statStreamBufferHit: 13806136
statPrefetchEntryFound: 6843520
statCompactorMatch: 12063075
statStreamTrackerLookup: 15120418
statRecord: 3057343
statGetPointer: 1314282
statEnqueuePrefetch: 20641977
statPrefetchQueueIsFull: 50450
StreamBufferHitRate: 0.913079
Regions' size: 1340
next_region_correct: 2356758
next_region_wrong: 699227
next_region_correct_prediction: 0.771194
statStreamBufferLookups: 1088670096
statL1iLookups: 165135816
statCompactorLookups: 544335048
morteza: start

SHEET
mana_table_access_counter : 9951295
hobp_table_access_counter : 24380427
sab_access_counter : 20649656
srq_access_counter : 16673318

morteza: end
CPU 0 L1D next line prefetcher final stats

DRAM Statistics
 CHANNEL 0
 RQ ROW_BUFFER_HIT:       3667  ROW_BUFFER_MISS:       7654
 DBUS_CONGESTED:       5325
 WQ ROW_BUFFER_HIT:        828  ROW_BUFFER_MISS:       2362  FULL:          0

 AVG_CONGESTED_CYCLE: 5

CPU 0 Branch Prediction Accuracy: 99.926% MPKI: 0.14472 Average ROB Occupancy at Mispredict: 176.318

Branch types
NOT_BRANCH: 40220894 80.4418%
BRANCH_DIRECT_JUMP: 771319 1.54264%
BRANCH_INDIRECT: 108663 0.217326%
BRANCH_CONDITIONAL: 6375022 12.75%
BRANCH_DIRECT_CALL: 1049632 2.09926%
BRANCH_INDIRECT_CALL: 212280 0.42456%
BRANCH_RETURN: 1261922 2.52384%
BRANCH_OTHER: 0 0%

