Initialize SIGNATURE TABLE
ST_SET: 1
ST_WAY: 256
ST_TAG_BIT: 16
ST_TAG_MASK: ffff

Initialize PATTERN TABLE
PT_SET: 512
PT_WAY: 4
SIG_DELTA_BIT: 7
C_SIG_BIT: 4
C_DELTA_BIT: 4

Initialize PREFETCH FILTER
FILTER_SET: 1024
MANA initialize 
tds: 2 tdm: 2
size MANA SINGLE: 15.5 KB
size MANA NULTIPLE: 0 KB
size HOBPT: 0.703125 KB
size SRQ: 0.14502 KB
size SABs: 0.290039 KB
size prefetch queue: 0.453125 KB
total: 17.0913 KB

*** ChampSim Multicore Out-of-Order Simulator ***

Warmup Instructions: 50000000
Simulation Instructions: 50000000
Number of CPUs: 1
LLC sets: 2048
LLC ways: 16
Off-chip DRAM Size: 4096 MB Channels: 1 Width: 64-bit Data Rate: 3200 MT/s

CPU 0 runs /home/mbaradaran/ChampSim/dpc3_traces/server_039.champsimtrace.xz
CPU 0 L1D next line prefetcher
Heartbeat CPU 0 instructions: 10000003 cycles: 3452099 heartbeat IPC: 2.89679 cumulative IPC: 2.89679 (Simulation time: 0 hr 1 min 54 sec) 
Heartbeat CPU 0 instructions: 20000002 cycles: 6897095 heartbeat IPC: 2.90276 cumulative IPC: 2.89977 (Simulation time: 0 hr 3 min 35 sec) 
Heartbeat CPU 0 instructions: 30000001 cycles: 10343957 heartbeat IPC: 2.90119 cumulative IPC: 2.90024 (Simulation time: 0 hr 4 min 56 sec) 
Heartbeat CPU 0 instructions: 40000002 cycles: 13786095 heartbeat IPC: 2.90517 cumulative IPC: 2.90147 (Simulation time: 0 hr 6 min 16 sec) 
Heartbeat CPU 0 instructions: 50000001 cycles: 17227650 heartbeat IPC: 2.90566 cumulative IPC: 2.90231 (Simulation time: 0 hr 7 min 36 sec) 

Warmup complete CPU 0 instructions: 50000001 cycles: 17227650 (Simulation time: 0 hr 7 min 36 sec) 

Heartbeat CPU 0 instructions: 60000000 cycles: 23670914 heartbeat IPC: 1.55201 cumulative IPC: 1.55201 (Simulation time: 0 hr 8 min 42 sec) 
Heartbeat CPU 0 instructions: 70000000 cycles: 30111461 heartbeat IPC: 1.55266 cumulative IPC: 1.55234 (Simulation time: 0 hr 9 min 47 sec) 
Heartbeat CPU 0 instructions: 80000000 cycles: 36557256 heartbeat IPC: 1.5514 cumulative IPC: 1.55202 (Simulation time: 0 hr 10 min 51 sec) 
Heartbeat CPU 0 instructions: 90000001 cycles: 43000731 heartbeat IPC: 1.55196 cumulative IPC: 1.55201 (Simulation time: 0 hr 11 min 54 sec) 
Heartbeat CPU 0 instructions: 100000002 cycles: 49442201 heartbeat IPC: 1.55244 cumulative IPC: 1.55209 (Simulation time: 0 hr 12 min 57 sec) 
Finished CPU 0 instructions: 50000001 cycles: 32214551 cumulative IPC: 1.55209 (Simulation time: 0 hr 12 min 57 sec) 

ChampSim completed all CPUs

Region of Interest Statistics

CPU 0 cumulative IPC: 1.55209 instructions: 50000001 cycles: 32214551

SHEET
IPC : 1.55209

L1D TOTAL     ACCESS:   20811213  HIT:   20316796  MISS:     494417
L1D LOAD      ACCESS:    6928042  HIT:    6706588  MISS:     221454
L1D RFO       ACCESS:    7122542  HIT:    7053525  MISS:      69017
L1D PREFETCH  ACCESS:    6760629  HIT:    6556683  MISS:     203946
L1D WRITEBACK ACCESS:          0  HIT:          0  MISS:          0
L1D PREFETCH  REQUESTED:    6944402  ISSUED:    6839151  USEFUL:      48115  USELESS:     155835
L1D AVERAGE MISS LATENCY: 15.0411 cycles
L1D

SHEET
L1D-total_access : 20811213
L1D-total_hit : 20316796
L1D-total_miss : 494417
L1D-load_access : 6928042
L1D-load_hit : 6706588
L1D-load_miss : 221454
L1D-rfo_access : 7122542
L1D-rfo_hit : 7053525
L1D-rfo_miss : 69017
L1D-prefetch_access : 6760629
L1D-prefetch_hit : 6556683
L1D-prefetch_miss : 203946
L1D-writeback_access : 0
L1D-writeback_hit : 0
L1D-writeback_miss : 0
L1D-prefetch_requested : 6944402
L1D-prefetch_issued : 6839151
L1D-prefetch_useful : 48115
L1D-prefetch_useless : 155835
L1D-Avg_miss_latency : 15.0411

L1I TOTAL     ACCESS:   19395776  HIT:   12453993  MISS:    6941783
L1I LOAD      ACCESS:    9324489  HIT:    8409498  MISS:     914991
L1I RFO       ACCESS:          0  HIT:          0  MISS:          0
L1I PREFETCH  ACCESS:   10071287  HIT:    4044495  MISS:    6026792
L1I WRITEBACK ACCESS:          0  HIT:          0  MISS:          0
L1I PREFETCH  REQUESTED:   11239255  ISSUED:   11044675  USEFUL:    3757217  USELESS:    2269572
L1I AVERAGE MISS LATENCY: 14.2879 cycles
L1I

SHEET
L1I-total_access : 19395776
L1I-total_hit : 12453993
L1I-total_miss : 6941783
L1I-load_access : 9324489
L1I-load_hit : 8409498
L1I-load_miss : 914991
L1I-rfo_access : 0
L1I-rfo_hit : 0
L1I-rfo_miss : 0
L1I-prefetch_access : 10071287
L1I-prefetch_hit : 4044495
L1I-prefetch_miss : 6026792
L1I-writeback_access : 0
L1I-writeback_hit : 0
L1I-writeback_miss : 0
L1I-prefetch_requested : 11239255
L1I-prefetch_issued : 11044675
L1I-prefetch_useful : 3757217
L1I-prefetch_useless : 2269572
L1I-Avg_miss_latency : 14.2879

L2C TOTAL     ACCESS:    9955338  HIT:    9955284  MISS:         54
L2C LOAD      ACCESS:     892144  HIT:     892141  MISS:          3
L2C RFO       ACCESS:      66788  HIT:      66788  MISS:          0
L2C PREFETCH  ACCESS:    8816450  HIT:    8816399  MISS:         51
L2C WRITEBACK ACCESS:     179956  HIT:     179956  MISS:          0
L2C PREFETCH  REQUESTED:    7309239  ISSUED:    7305159  USEFUL:          1  USELESS:          1
L2C AVERAGE MISS LATENCY: 33.0741 cycles
L2C

SHEET
L2C-total_access : 9955338
L2C-total_hit : 9955284
L2C-total_miss : 54
L2C-load_access : 892144
L2C-load_hit : 892141
L2C-load_miss : 3
L2C-rfo_access : 66788
L2C-rfo_hit : 66788
L2C-rfo_miss : 0
L2C-prefetch_access : 8816450
L2C-prefetch_hit : 8816399
L2C-prefetch_miss : 51
L2C-writeback_access : 179956
L2C-writeback_hit : 179956
L2C-writeback_miss : 0
L2C-prefetch_requested : 7309239
L2C-prefetch_issued : 7305159
L2C-prefetch_useful : 1
L2C-prefetch_useless : 1
L2C-Avg_miss_latency : 33.0741

LLC TOTAL     ACCESS:    1485896  HIT:    1485555  MISS:        341
LLC LOAD      ACCESS:          3  HIT:          3  MISS:          0
LLC RFO       ACCESS:          0  HIT:          0  MISS:          0
LLC PREFETCH  ACCESS:    1485892  HIT:    1485551  MISS:        341
LLC WRITEBACK ACCESS:          1  HIT:          1  MISS:          0
LLC PREFETCH  REQUESTED:          0  ISSUED:          0  USEFUL:          3  USELESS:          0
LLC AVERAGE MISS LATENCY: 180.381 cycles
LLC

SHEET
LLC-total_access : 1485896
LLC-total_hit : 1485555
LLC-total_miss : 341
LLC-load_access : 3
LLC-load_hit : 3
LLC-load_miss : 0
LLC-rfo_access : 0
LLC-rfo_hit : 0
LLC-rfo_miss : 0
LLC-prefetch_access : 1485892
LLC-prefetch_hit : 1485551
LLC-prefetch_miss : 341
LLC-writeback_access : 1
LLC-writeback_hit : 1
LLC-writeback_miss : 0
LLC-prefetch_requested : 0
LLC-prefetch_issued : 0
LLC-prefetch_useful : 3
LLC-prefetch_useless : 0
LLC-Avg_miss_latency : 180.381

Major fault: 0 Minor fault: 356



Printing Logs
statHeadFound: 837676
statHeadMissing: 613163
statStreamBufferHit: 12757252
statPrefetchEntryFound: 7032073
statCompactorMatch: 11021621
statStreamTrackerLookup: 14208091
statRecord: 3186470
statGetPointer: 1450839
statEnqueuePrefetch: 22048263
statPrefetchQueueIsFull: 16775
StreamBufferHitRate: 0.897886
Regions' size: 749
next_region_correct: 2466250
next_region_wrong: 719453
next_region_correct_prediction: 0.774162
statStreamBufferLookups: 1022982552
statL1iLookups: 176386104
statCompactorLookups: 511491276
morteza: start

SHEET
mana_table_access_counter : 10235300
hobp_table_access_counter : 25598032
sab_access_counter : 19789325
srq_access_counter : 16651165

morteza: end
CPU 0 L1D next line prefetcher final stats

DRAM Statistics
 CHANNEL 0
 RQ ROW_BUFFER_HIT:         50  ROW_BUFFER_MISS:        291
 DBUS_CONGESTED:         57
 WQ ROW_BUFFER_HIT:          0  ROW_BUFFER_MISS:          0  FULL:          0

 AVG_CONGESTED_CYCLE: 5

CPU 0 Branch Prediction Accuracy: 99.9091% MPKI: 0.1547 Average ROB Occupancy at Mispredict: 131.655

Branch types
NOT_BRANCH: 41494927 82.9899%
BRANCH_DIRECT_JUMP: 491308 0.982616%
BRANCH_INDIRECT: 0 0%
BRANCH_CONDITIONAL: 5595248 11.1905%
BRANCH_DIRECT_CALL: 1028408 2.05682%
BRANCH_INDIRECT_CALL: 180756 0.361512%
BRANCH_RETURN: 1209169 2.41834%
BRANCH_OTHER: 0 0%

