Initialize SIGNATURE TABLE
ST_SET: 1
ST_WAY: 256
ST_TAG_BIT: 16
ST_TAG_MASK: ffff

Initialize PATTERN TABLE
PT_SET: 512
PT_WAY: 4
SIG_DELTA_BIT: 7
C_SIG_BIT: 4
C_DELTA_BIT: 4

Initialize PREFETCH FILTER
FILTER_SET: 1024
MANA initialize 
tds: 2 tdm: 2
size MANA SINGLE: 15.5 KB
size MANA NULTIPLE: 0 KB
size HOBPT: 0.703125 KB
size SRQ: 0.14502 KB
size SABs: 0.290039 KB
size prefetch queue: 0.453125 KB
total: 17.0913 KB

*** ChampSim Multicore Out-of-Order Simulator ***

Warmup Instructions: 50000000
Simulation Instructions: 50000000
Number of CPUs: 1
LLC sets: 2048
LLC ways: 16
Off-chip DRAM Size: 4096 MB Channels: 1 Width: 64-bit Data Rate: 3200 MT/s

CPU 0 runs /home/mbaradaran/ChampSim/dpc3_traces/server_024.champsimtrace.xz
CPU 0 L1D next line prefetcher
Heartbeat CPU 0 instructions: 10000000 cycles: 3519143 heartbeat IPC: 2.8416 cumulative IPC: 2.8416 (Simulation time: 0 hr 1 min 56 sec) 
Heartbeat CPU 0 instructions: 20000002 cycles: 7032038 heartbeat IPC: 2.84666 cumulative IPC: 2.84413 (Simulation time: 0 hr 3 min 58 sec) 
Heartbeat CPU 0 instructions: 30000000 cycles: 10556000 heartbeat IPC: 2.83771 cumulative IPC: 2.84199 (Simulation time: 0 hr 5 min 54 sec) 
Heartbeat CPU 0 instructions: 40000000 cycles: 14075562 heartbeat IPC: 2.84126 cumulative IPC: 2.8418 (Simulation time: 0 hr 7 min 48 sec) 
Heartbeat CPU 0 instructions: 50000001 cycles: 17585051 heartbeat IPC: 2.84942 cumulative IPC: 2.84332 (Simulation time: 0 hr 9 min 39 sec) 

Warmup complete CPU 0 instructions: 50000001 cycles: 17585051 (Simulation time: 0 hr 9 min 39 sec) 

Heartbeat CPU 0 instructions: 60000002 cycles: 25010034 heartbeat IPC: 1.3468 cumulative IPC: 1.3468 (Simulation time: 0 hr 11 min 32 sec) 
Heartbeat CPU 0 instructions: 70000000 cycles: 32456490 heartbeat IPC: 1.34292 cumulative IPC: 1.34486 (Simulation time: 0 hr 13 min 18 sec) 
*** Reached end of trace for Core: 0 Repeating trace: /home/mbaradaran/ChampSim/dpc3_traces/server_024.champsimtrace.xz
Heartbeat CPU 0 instructions: 80000003 cycles: 39869153 heartbeat IPC: 1.34904 cumulative IPC: 1.34625 (Simulation time: 0 hr 15 min 9 sec) 
Heartbeat CPU 0 instructions: 90000003 cycles: 47333882 heartbeat IPC: 1.33963 cumulative IPC: 1.34459 (Simulation time: 0 hr 16 min 53 sec) 
Heartbeat CPU 0 instructions: 100000002 cycles: 54770774 heartbeat IPC: 1.34465 cumulative IPC: 1.3446 (Simulation time: 0 hr 18 min 40 sec) 
Finished CPU 0 instructions: 50000001 cycles: 37185723 cumulative IPC: 1.3446 (Simulation time: 0 hr 18 min 40 sec) 

ChampSim completed all CPUs

Region of Interest Statistics

CPU 0 cumulative IPC: 1.3446 instructions: 50000001 cycles: 37185723

SHEET
IPC : 1.3446

L1D TOTAL     ACCESS:   20385477  HIT:   18867626  MISS:    1517851
L1D LOAD      ACCESS:    7274208  HIT:    6594517  MISS:     679691
L1D RFO       ACCESS:    6164446  HIT:    5890285  MISS:     274161
L1D PREFETCH  ACCESS:    6946823  HIT:    6382824  MISS:     563999
L1D WRITEBACK ACCESS:          0  HIT:          0  MISS:          0
L1D PREFETCH  REQUESTED:    7328332  ISSUED:    7210330  USEFUL:     136614  USELESS:     427390
L1D AVERAGE MISS LATENCY: 25.19 cycles
L1D

SHEET
L1D-total_access : 20385477
L1D-total_hit : 18867626
L1D-total_miss : 1517851
L1D-load_access : 7274208
L1D-load_hit : 6594517
L1D-load_miss : 679691
L1D-rfo_access : 6164446
L1D-rfo_hit : 5890285
L1D-rfo_miss : 274161
L1D-prefetch_access : 6946823
L1D-prefetch_hit : 6382824
L1D-prefetch_miss : 563999
L1D-writeback_access : 0
L1D-writeback_hit : 0
L1D-writeback_miss : 0
L1D-prefetch_requested : 7328332
L1D-prefetch_issued : 7210330
L1D-prefetch_useful : 136614
L1D-prefetch_useless : 427390
L1D-Avg_miss_latency : 25.19

L1I TOTAL     ACCESS:   18799714  HIT:   13059810  MISS:    5739904
L1I LOAD      ACCESS:    9171517  HIT:    8215816  MISS:     955701
L1I RFO       ACCESS:          0  HIT:          0  MISS:          0
L1I PREFETCH  ACCESS:    9628197  HIT:    4843994  MISS:    4784203
L1I WRITEBACK ACCESS:          0  HIT:          0  MISS:          0
L1I PREFETCH  REQUESTED:   10886680  ISSUED:   10535246  USEFUL:    2156176  USELESS:    2628027
L1I AVERAGE MISS LATENCY: 15.873 cycles
L1I

SHEET
L1I-total_access : 18799714
L1I-total_hit : 13059810
L1I-total_miss : 5739904
L1I-load_access : 9171517
L1I-load_hit : 8215816
L1I-load_miss : 955701
L1I-rfo_access : 0
L1I-rfo_hit : 0
L1I-rfo_miss : 0
L1I-prefetch_access : 9628197
L1I-prefetch_hit : 4843994
L1I-prefetch_miss : 4784203
L1I-writeback_access : 0
L1I-writeback_hit : 0
L1I-writeback_miss : 0
L1I-prefetch_requested : 10886680
L1I-prefetch_issued : 10535246
L1I-prefetch_useful : 2156176
L1I-prefetch_useless : 2628027
L1I-Avg_miss_latency : 15.873

L2C TOTAL     ACCESS:    9755228  HIT:    9107443  MISS:     647785
L2C LOAD      ACCESS:    1366652  HIT:    1183001  MISS:     183651
L2C RFO       ACCESS:     272188  HIT:     184504  MISS:      87684
L2C PREFETCH  ACCESS:    7596190  HIT:    7223570  MISS:     372620
L2C WRITEBACK ACCESS:     520198  HIT:     516368  MISS:       3830
L2C PREFETCH  REQUESTED:    7930879  ISSUED:    7920827  USEFUL:      41581  USELESS:     329684
L2C AVERAGE MISS LATENCY: 44.6382 cycles
L2C

SHEET
L2C-total_access : 9755228
L2C-total_hit : 9107443
L2C-total_miss : 647785
L2C-load_access : 1366652
L2C-load_hit : 1183001
L2C-load_miss : 183651
L2C-rfo_access : 272188
L2C-rfo_hit : 184504
L2C-rfo_miss : 87684
L2C-prefetch_access : 7596190
L2C-prefetch_hit : 7223570
L2C-prefetch_miss : 372620
L2C-writeback_access : 520198
L2C-writeback_hit : 516368
L2C-writeback_miss : 3830
L2C-prefetch_requested : 7930879
L2C-prefetch_issued : 7920827
L2C-prefetch_useful : 41581
L2C-prefetch_useless : 329684
L2C-Avg_miss_latency : 44.6382

LLC TOTAL     ACCESS:    2688795  HIT:    2638301  MISS:      50494
LLC LOAD      ACCESS:     183472  HIT:     177859  MISS:       5613
LLC RFO       ACCESS:      87684  HIT:      65617  MISS:      22067
LLC PREFETCH  ACCESS:    2275675  HIT:    2253124  MISS:      22551
LLC WRITEBACK ACCESS:     141964  HIT:     141701  MISS:        263
LLC PREFETCH  REQUESTED:          0  ISSUED:          0  USEFUL:       2211  USELESS:      19819
LLC AVERAGE MISS LATENCY: 200.663 cycles
LLC

SHEET
LLC-total_access : 2688795
LLC-total_hit : 2638301
LLC-total_miss : 50494
LLC-load_access : 183472
LLC-load_hit : 177859
LLC-load_miss : 5613
LLC-rfo_access : 87684
LLC-rfo_hit : 65617
LLC-rfo_miss : 22067
LLC-prefetch_access : 2275675
LLC-prefetch_hit : 2253124
LLC-prefetch_miss : 22551
LLC-writeback_access : 141964
LLC-writeback_hit : 141701
LLC-writeback_miss : 263
LLC-prefetch_requested : 0
LLC-prefetch_issued : 0
LLC-prefetch_useful : 2211
LLC-prefetch_useless : 19819
LLC-Avg_miss_latency : 200.663

Major fault: 0 Minor fault: 2362



Printing Logs
statHeadFound: 1027200
statHeadMissing: 1239885
statStreamBufferHit: 11812874
statPrefetchEntryFound: 6892319
statCompactorMatch: 11736729
statStreamTrackerLookup: 14079959
statRecord: 2343230
statGetPointer: 2267085
statEnqueuePrefetch: 20905023
statPrefetchQueueIsFull: 139723
StreamBufferHitRate: 0.838985
Regions' size: 2210
next_region_correct: 1573332
next_region_wrong: 767670
next_region_correct_prediction: 0.672076
statStreamBufferLookups: 1013757048
statL1iLookups: 167240184
statCompactorLookups: 506878524
morteza: start

SHEET
mana_table_access_counter : 9375254
hobp_table_access_counter : 25473302
sab_access_counter : 18705193
srq_access_counter : 15080311

morteza: end
CPU 0 L1D next line prefetcher final stats

DRAM Statistics
 CHANNEL 0
 RQ ROW_BUFFER_HIT:      17531  ROW_BUFFER_MISS:      32700
 DBUS_CONGESTED:      38212
 WQ ROW_BUFFER_HIT:       2823  ROW_BUFFER_MISS:      23096  FULL:          0

 AVG_CONGESTED_CYCLE: 6

CPU 0 Branch Prediction Accuracy: 99.7477% MPKI: 0.46156 Average ROB Occupancy at Mispredict: 140.105

Branch types
NOT_BRANCH: 40853595 81.7072%
BRANCH_DIRECT_JUMP: 566814 1.13363%
BRANCH_INDIRECT: 197171 0.394342%
BRANCH_CONDITIONAL: 6308406 12.6168%
BRANCH_DIRECT_CALL: 876399 1.7528%
BRANCH_INDIRECT_CALL: 160491 0.320982%
BRANCH_RETURN: 1036885 2.07377%
BRANCH_OTHER: 0 0%

