Initialize SIGNATURE TABLE
ST_SET: 1
ST_WAY: 256
ST_TAG_BIT: 16
ST_TAG_MASK: ffff

Initialize PATTERN TABLE
PT_SET: 512
PT_WAY: 4
SIG_DELTA_BIT: 7
C_SIG_BIT: 4
C_DELTA_BIT: 4

Initialize PREFETCH FILTER
FILTER_SET: 1024
MANA initialize 
tds: 2 tdm: 2
size MANA SINGLE: 15.5 KB
size MANA NULTIPLE: 0 KB
size HOBPT: 0.703125 KB
size SRQ: 0.14502 KB
size SABs: 0.290039 KB
size prefetch queue: 0.453125 KB
total: 17.0913 KB

*** ChampSim Multicore Out-of-Order Simulator ***

Warmup Instructions: 50000000
Simulation Instructions: 50000000
Number of CPUs: 1
LLC sets: 2048
LLC ways: 16
Off-chip DRAM Size: 4096 MB Channels: 1 Width: 64-bit Data Rate: 3200 MT/s

CPU 0 runs /home/mbaradaran/ChampSim/dpc3_traces/server_016.champsimtrace.xz
CPU 0 L1D next line prefetcher
Heartbeat CPU 0 instructions: 10000000 cycles: 3515926 heartbeat IPC: 2.8442 cumulative IPC: 2.8442 (Simulation time: 0 hr 1 min 57 sec) 
Heartbeat CPU 0 instructions: 20000000 cycles: 7031962 heartbeat IPC: 2.84411 cumulative IPC: 2.84416 (Simulation time: 0 hr 3 min 58 sec) 
Heartbeat CPU 0 instructions: 30000001 cycles: 10544038 heartbeat IPC: 2.84732 cumulative IPC: 2.84521 (Simulation time: 0 hr 5 min 58 sec) 
Heartbeat CPU 0 instructions: 40000000 cycles: 13846371 heartbeat IPC: 3.02816 cumulative IPC: 2.88884 (Simulation time: 0 hr 7 min 1 sec) 
Heartbeat CPU 0 instructions: 50000002 cycles: 17081836 heartbeat IPC: 3.09075 cumulative IPC: 2.92709 (Simulation time: 0 hr 7 min 46 sec) 

Warmup complete CPU 0 instructions: 50000002 cycles: 17081836 (Simulation time: 0 hr 7 min 46 sec) 

Heartbeat CPU 0 instructions: 60000001 cycles: 25107148 heartbeat IPC: 1.24606 cumulative IPC: 1.24606 (Simulation time: 0 hr 8 min 43 sec) 
Heartbeat CPU 0 instructions: 70000001 cycles: 32483933 heartbeat IPC: 1.3556 cumulative IPC: 1.29852 (Simulation time: 0 hr 10 min 36 sec) 
Heartbeat CPU 0 instructions: 80000000 cycles: 39991894 heartbeat IPC: 1.33192 cumulative IPC: 1.30947 (Simulation time: 0 hr 12 min 24 sec) 
Heartbeat CPU 0 instructions: 90000000 cycles: 47282905 heartbeat IPC: 1.37155 cumulative IPC: 1.32446 (Simulation time: 0 hr 14 min 11 sec) 
Heartbeat CPU 0 instructions: 100000000 cycles: 54710344 heartbeat IPC: 1.34636 cumulative IPC: 1.32878 (Simulation time: 0 hr 15 min 53 sec) 
Finished CPU 0 instructions: 50000000 cycles: 37628509 cumulative IPC: 1.32878 (Simulation time: 0 hr 15 min 53 sec) 

ChampSim completed all CPUs

Region of Interest Statistics

CPU 0 cumulative IPC: 1.32878 instructions: 50000000 cycles: 37628509

SHEET
IPC : 1.32878

L1D TOTAL     ACCESS:   18545821  HIT:   17278077  MISS:    1267744
L1D LOAD      ACCESS:    6809267  HIT:    6237899  MISS:     571368
L1D RFO       ACCESS:    5205916  HIT:    4983487  MISS:     222429
L1D PREFETCH  ACCESS:    6530638  HIT:    6056691  MISS:     473947
L1D WRITEBACK ACCESS:          0  HIT:          0  MISS:          0
L1D PREFETCH  REQUESTED:    6851924  ISSUED:    6750304  USEFUL:     114700  USELESS:     359265
L1D AVERAGE MISS LATENCY: 23.0859 cycles
L1D

SHEET
L1D-total_access : 18545821
L1D-total_hit : 17278077
L1D-total_miss : 1267744
L1D-load_access : 6809267
L1D-load_hit : 6237899
L1D-load_miss : 571368
L1D-rfo_access : 5205916
L1D-rfo_hit : 4983487
L1D-rfo_miss : 222429
L1D-prefetch_access : 6530638
L1D-prefetch_hit : 6056691
L1D-prefetch_miss : 473947
L1D-writeback_access : 0
L1D-writeback_hit : 0
L1D-writeback_miss : 0
L1D-prefetch_requested : 6851924
L1D-prefetch_issued : 6750304
L1D-prefetch_useful : 114700
L1D-prefetch_useless : 359265
L1D-Avg_miss_latency : 23.0859

L1I TOTAL     ACCESS:   17596619  HIT:   12860776  MISS:    4735843
L1I LOAD      ACCESS:    9736967  HIT:    8927977  MISS:     808990
L1I RFO       ACCESS:          0  HIT:          0  MISS:          0
L1I PREFETCH  ACCESS:    7859652  HIT:    3932799  MISS:    3926853
L1I WRITEBACK ACCESS:          0  HIT:          0  MISS:          0
L1I PREFETCH  REQUESTED:    8912883  ISSUED:    8648417  USEFUL:    1804414  USELESS:    2122475
L1I AVERAGE MISS LATENCY: 15.7967 cycles
L1I

SHEET
L1I-total_access : 17596619
L1I-total_hit : 12860776
L1I-total_miss : 4735843
L1I-load_access : 9736967
L1I-load_hit : 8927977
L1I-load_miss : 808990
L1I-rfo_access : 0
L1I-rfo_hit : 0
L1I-rfo_miss : 0
L1I-prefetch_access : 7859652
L1I-prefetch_hit : 3932799
L1I-prefetch_miss : 3926853
L1I-writeback_access : 0
L1I-writeback_hit : 0
L1I-writeback_miss : 0
L1I-prefetch_requested : 8912883
L1I-prefetch_issued : 8648417
L1I-prefetch_useful : 1804414
L1I-prefetch_useless : 2122475
L1I-Avg_miss_latency : 15.7967

L2C TOTAL     ACCESS:    8060844  HIT:    7564201  MISS:     496643
L2C LOAD      ACCESS:    1148479  HIT:    1009643  MISS:     138836
L2C RFO       ACCESS:     220523  HIT:     159255  MISS:      61268
L2C PREFETCH  ACCESS:    6263649  HIT:    5969106  MISS:     294543
L2C WRITEBACK ACCESS:     428193  HIT:     426197  MISS:       1996
L2C PREFETCH  REQUESTED:    6361176  ISSUED:    6353167  USEFUL:      40448  USELESS:     253634
L2C AVERAGE MISS LATENCY: 41.9398 cycles
L2C

SHEET
L2C-total_access : 8060844
L2C-total_hit : 7564201
L2C-total_miss : 496643
L2C-load_access : 1148479
L2C-load_hit : 1009643
L2C-load_miss : 138836
L2C-rfo_access : 220523
L2C-rfo_hit : 159255
L2C-rfo_miss : 61268
L2C-prefetch_access : 6263649
L2C-prefetch_hit : 5969106
L2C-prefetch_miss : 294543
L2C-writeback_access : 428193
L2C-writeback_hit : 426197
L2C-writeback_miss : 1996
L2C-prefetch_requested : 6361176
L2C-prefetch_issued : 6353167
L2C-prefetch_useful : 40448
L2C-prefetch_useless : 253634
L2C-Avg_miss_latency : 41.9398

LLC TOTAL     ACCESS:    2099827  HIT:    2064454  MISS:      35373
LLC LOAD      ACCESS:     138720  HIT:     134468  MISS:       4252
LLC RFO       ACCESS:      61268  HIT:      47828  MISS:      13440
LLC PREFETCH  ACCESS:    1799826  HIT:    1782291  MISS:      17535
LLC WRITEBACK ACCESS:     100013  HIT:      99867  MISS:        146
LLC PREFETCH  REQUESTED:          0  ISSUED:          0  USEFUL:       1835  USELESS:      15202
LLC AVERAGE MISS LATENCY: 177.182 cycles
LLC

SHEET
LLC-total_access : 2099827
LLC-total_hit : 2064454
LLC-total_miss : 35373
LLC-load_access : 138720
LLC-load_hit : 134468
LLC-load_miss : 4252
LLC-rfo_access : 61268
LLC-rfo_hit : 47828
LLC-rfo_miss : 13440
LLC-prefetch_access : 1799826
LLC-prefetch_hit : 1782291
LLC-prefetch_miss : 17535
LLC-writeback_access : 100013
LLC-writeback_hit : 99867
LLC-writeback_miss : 146
LLC-prefetch_requested : 0
LLC-prefetch_issued : 0
LLC-prefetch_useful : 1835
LLC-prefetch_useless : 15202
LLC-Avg_miss_latency : 177.182

Major fault: 0 Minor fault: 2365



Printing Logs
statHeadFound: 748671
statHeadMissing: 1069868
statStreamBufferHit: 12933468
statPrefetchEntryFound: 5059744
statCompactorMatch: 13023561
statStreamTrackerLookup: 14752007
statRecord: 1728446
statGetPointer: 1818539
statEnqueuePrefetch: 15301124
statPrefetchQueueIsFull: 89946
StreamBufferHitRate: 0.876726
Regions' size: 2192
next_region_correct: 1164101
next_region_wrong: 562135
next_region_correct_prediction: 0.674358
statStreamBufferLookups: 1062144504
statL1iLookups: 122408992
statCompactorLookups: 531072252
morteza: start

SHEET
mana_table_access_counter : 6878118
hobp_table_access_counter : 19337630
sab_access_counter : 17993212
srq_access_counter : 13301090

morteza: end
CPU 0 L1D next line prefetcher final stats

DRAM Statistics
 CHANNEL 0
 RQ ROW_BUFFER_HIT:      11356  ROW_BUFFER_MISS:      23871
 DBUS_CONGESTED:      23269
 WQ ROW_BUFFER_HIT:       1618  ROW_BUFFER_MISS:      14510  FULL:          0

 AVG_CONGESTED_CYCLE: 6

CPU 0 Branch Prediction Accuracy: 99.7225% MPKI: 0.50376 Average ROB Occupancy at Mispredict: 108.468

Branch types
NOT_BRANCH: 40923869 81.8477%
BRANCH_DIRECT_JUMP: 487044 0.974088%
BRANCH_INDIRECT: 169158 0.338316%
BRANCH_CONDITIONAL: 6640822 13.2816%
BRANCH_DIRECT_CALL: 755585 1.51117%
BRANCH_INDIRECT_CALL: 133962 0.267924%
BRANCH_RETURN: 889566 1.77913%
BRANCH_OTHER: 0 0%

