Initialize SIGNATURE TABLE
ST_SET: 1
ST_WAY: 256
ST_TAG_BIT: 16
ST_TAG_MASK: ffff

Initialize PATTERN TABLE
PT_SET: 512
PT_WAY: 4
SIG_DELTA_BIT: 7
C_SIG_BIT: 4
C_DELTA_BIT: 4

Initialize PREFETCH FILTER
FILTER_SET: 1024
MANA initialize 
tds: 2 tdm: 2
size MANA SINGLE: 15.5 KB
size MANA NULTIPLE: 0 KB
size HOBPT: 0.703125 KB
size SRQ: 0.14502 KB
size SABs: 0.290039 KB
size prefetch queue: 0.453125 KB
total: 17.0913 KB

*** ChampSim Multicore Out-of-Order Simulator ***

Warmup Instructions: 50000000
Simulation Instructions: 50000000
Number of CPUs: 1
LLC sets: 2048
LLC ways: 16
Off-chip DRAM Size: 4096 MB Channels: 1 Width: 64-bit Data Rate: 3200 MT/s

CPU 0 runs /home/mbaradaran/ChampSim/dpc3_traces/server_026.champsimtrace.xz
CPU 0 L1D next line prefetcher
Heartbeat CPU 0 instructions: 10000000 cycles: 3547062 heartbeat IPC: 2.81923 cumulative IPC: 2.81923 (Simulation time: 0 hr 1 min 54 sec) 
Heartbeat CPU 0 instructions: 20000002 cycles: 7100314 heartbeat IPC: 2.81432 cumulative IPC: 2.81678 (Simulation time: 0 hr 3 min 52 sec) 
Heartbeat CPU 0 instructions: 30000000 cycles: 10644037 heartbeat IPC: 2.82189 cumulative IPC: 2.81848 (Simulation time: 0 hr 5 min 54 sec) 
Heartbeat CPU 0 instructions: 40000003 cycles: 14196197 heartbeat IPC: 2.81519 cumulative IPC: 2.81766 (Simulation time: 0 hr 8 min 0 sec) 
Heartbeat CPU 0 instructions: 50000000 cycles: 17741699 heartbeat IPC: 2.82047 cumulative IPC: 2.81822 (Simulation time: 0 hr 9 min 58 sec) 

Warmup complete CPU 0 instructions: 50000004 cycles: 17741700 (Simulation time: 0 hr 9 min 58 sec) 

*** Reached end of trace for Core: 0 Repeating trace: /home/mbaradaran/ChampSim/dpc3_traces/server_026.champsimtrace.xz
Heartbeat CPU 0 instructions: 60000000 cycles: 25361074 heartbeat IPC: 1.31244 cumulative IPC: 1.31244 (Simulation time: 0 hr 11 min 53 sec) 
Heartbeat CPU 0 instructions: 70000003 cycles: 32875988 heartbeat IPC: 1.33069 cumulative IPC: 1.3215 (Simulation time: 0 hr 13 min 41 sec) 
Heartbeat CPU 0 instructions: 80000003 cycles: 40493801 heartbeat IPC: 1.31271 cumulative IPC: 1.31856 (Simulation time: 0 hr 15 min 29 sec) 
Heartbeat CPU 0 instructions: 90000002 cycles: 48019468 heartbeat IPC: 1.32879 cumulative IPC: 1.3211 (Simulation time: 0 hr 17 min 18 sec) 
Heartbeat CPU 0 instructions: 100000000 cycles: 55617742 heartbeat IPC: 1.31609 cumulative IPC: 1.3201 (Simulation time: 0 hr 19 min 12 sec) 
Finished CPU 0 instructions: 50000000 cycles: 37876043 cumulative IPC: 1.3201 (Simulation time: 0 hr 19 min 12 sec) 

ChampSim completed all CPUs

Region of Interest Statistics

CPU 0 cumulative IPC: 1.3201 instructions: 50000000 cycles: 37876043

SHEET
IPC : 1.3201

L1D TOTAL     ACCESS:   20536769  HIT:   18891041  MISS:    1645728
L1D LOAD      ACCESS:    7306572  HIT:    6577484  MISS:     729088
L1D RFO       ACCESS:    6261824  HIT:    5974356  MISS:     287468
L1D PREFETCH  ACCESS:    6968373  HIT:    6339201  MISS:     629172
L1D WRITEBACK ACCESS:          0  HIT:          0  MISS:          0
L1D PREFETCH  REQUESTED:    7353614  ISSUED:    7217166  USEFUL:     151196  USELESS:     477985
L1D AVERAGE MISS LATENCY: 23.6127 cycles
L1D

SHEET
L1D-total_access : 20536769
L1D-total_hit : 18891041
L1D-total_miss : 1645728
L1D-load_access : 7306572
L1D-load_hit : 6577484
L1D-load_miss : 729088
L1D-rfo_access : 6261824
L1D-rfo_hit : 5974356
L1D-rfo_miss : 287468
L1D-prefetch_access : 6968373
L1D-prefetch_hit : 6339201
L1D-prefetch_miss : 629172
L1D-writeback_access : 0
L1D-writeback_hit : 0
L1D-writeback_miss : 0
L1D-prefetch_requested : 7353614
L1D-prefetch_issued : 7217166
L1D-prefetch_useful : 151196
L1D-prefetch_useless : 477985
L1D-Avg_miss_latency : 23.6127

L1I TOTAL     ACCESS:   19403622  HIT:   13069059  MISS:    6334563
L1I LOAD      ACCESS:    9300565  HIT:    8212345  MISS:    1088220
L1I RFO       ACCESS:          0  HIT:          0  MISS:          0
L1I PREFETCH  ACCESS:   10103057  HIT:    4856714  MISS:    5246343
L1I WRITEBACK ACCESS:          0  HIT:          0  MISS:          0
L1I PREFETCH  REQUESTED:   11417554  ISSUED:   11051384  USEFUL:    2313908  USELESS:    2932419
L1I AVERAGE MISS LATENCY: 15.8789 cycles
L1I

SHEET
L1I-total_access : 19403622
L1I-total_hit : 13069059
L1I-total_miss : 6334563
L1I-load_access : 9300565
L1I-load_hit : 8212345
L1I-load_miss : 1088220
L1I-rfo_access : 0
L1I-rfo_hit : 0
L1I-rfo_miss : 0
L1I-prefetch_access : 10103057
L1I-prefetch_hit : 4856714
L1I-prefetch_miss : 5246343
L1I-writeback_access : 0
L1I-writeback_hit : 0
L1I-writeback_miss : 0
L1I-prefetch_requested : 11417554
L1I-prefetch_issued : 11051384
L1I-prefetch_useful : 2313908
L1I-prefetch_useless : 2932419
L1I-Avg_miss_latency : 15.8789

L2C TOTAL     ACCESS:   10716215  HIT:    9988484  MISS:     727731
L2C LOAD      ACCESS:    1527448  HIT:    1315783  MISS:     211665
L2C RFO       ACCESS:     284842  HIT:     190587  MISS:      94255
L2C PREFETCH  ACCESS:    8342749  HIT:    7925387  MISS:     417362
L2C WRITEBACK ACCESS:     561176  HIT:     556727  MISS:       4449
L2C PREFETCH  REQUESTED:    8725184  ISSUED:    8712452  USEFUL:      49984  USELESS:     366101
L2C AVERAGE MISS LATENCY: 39.0575 cycles
L2C

SHEET
L2C-total_access : 10716215
L2C-total_hit : 9988484
L2C-total_miss : 727731
L2C-load_access : 1527448
L2C-load_hit : 1315783
L2C-load_miss : 211665
L2C-rfo_access : 284842
L2C-rfo_hit : 190587
L2C-rfo_miss : 94255
L2C-prefetch_access : 8342749
L2C-prefetch_hit : 7925387
L2C-prefetch_miss : 417362
L2C-writeback_access : 561176
L2C-writeback_hit : 556727
L2C-writeback_miss : 4449
L2C-prefetch_requested : 8725184
L2C-prefetch_issued : 8712452
L2C-prefetch_useful : 49984
L2C-prefetch_useless : 366101
L2C-Avg_miss_latency : 39.0575

LLC TOTAL     ACCESS:    2995142  HIT:    2962537  MISS:      32605
LLC LOAD      ACCESS:     211549  HIT:     208077  MISS:       3472
LLC RFO       ACCESS:      94215  HIT:      80151  MISS:      14064
LLC PREFETCH  ACCESS:    2528491  HIT:    2513599  MISS:      14892
LLC WRITEBACK ACCESS:     160887  HIT:     160710  MISS:        177
LLC PREFETCH  REQUESTED:          0  ISSUED:          0  USEFUL:       1113  USELESS:      13234
LLC AVERAGE MISS LATENCY: 190.314 cycles
LLC

SHEET
LLC-total_access : 2995142
LLC-total_hit : 2962537
LLC-total_miss : 32605
LLC-load_access : 211549
LLC-load_hit : 208077
LLC-load_miss : 3472
LLC-rfo_access : 94215
LLC-rfo_hit : 80151
LLC-rfo_miss : 14064
LLC-prefetch_access : 2528491
LLC-prefetch_hit : 2513599
LLC-prefetch_miss : 14892
LLC-writeback_access : 160887
LLC-writeback_hit : 160710
LLC-writeback_miss : 177
LLC-prefetch_requested : 0
LLC-prefetch_issued : 0
LLC-prefetch_useful : 1113
LLC-prefetch_useless : 13234
LLC-Avg_miss_latency : 190.314

Major fault: 0 Minor fault: 2165



Printing Logs
statHeadFound: 1110142
statHeadMissing: 1350651
statStreamBufferHit: 11748526
statPrefetchEntryFound: 7247305
statCompactorMatch: 11684291
statStreamTrackerLookup: 14209319
statRecord: 2525028
statGetPointer: 2460793
statEnqueuePrefetch: 21775790
statPrefetchQueueIsFull: 192332
StreamBufferHitRate: 0.826818
Regions' size: 2069
next_region_correct: 1705230
next_region_wrong: 817711
next_region_correct_prediction: 0.67589
statStreamBufferLookups: 1023070968
statL1iLookups: 174206320
statCompactorLookups: 511535484
morteza: start

SHEET
mana_table_access_counter : 9964647
hobp_table_access_counter : 27382920
sab_access_counter : 18995831
srq_access_counter : 15393077

morteza: end
CPU 0 L1D next line prefetcher final stats

DRAM Statistics
 CHANNEL 0
 RQ ROW_BUFFER_HIT:      11817  ROW_BUFFER_MISS:      20608
 DBUS_CONGESTED:      23288
 WQ ROW_BUFFER_HIT:       1552  ROW_BUFFER_MISS:      14085  FULL:          0

 AVG_CONGESTED_CYCLE: 6

CPU 0 Branch Prediction Accuracy: 99.822% MPKI: 0.32584 Average ROB Occupancy at Mispredict: 140.698

Branch types
NOT_BRANCH: 40848541 81.6971%
BRANCH_DIRECT_JUMP: 522045 1.04409%
BRANCH_INDIRECT: 204034 0.408068%
BRANCH_CONDITIONAL: 6212955 12.4259%
BRANCH_DIRECT_CALL: 932389 1.86478%
BRANCH_INDIRECT_CALL: 173764 0.347528%
BRANCH_RETURN: 1106150 2.2123%
BRANCH_OTHER: 0 0%

