Initialize SIGNATURE TABLE
ST_SET: 1
ST_WAY: 256
ST_TAG_BIT: 16
ST_TAG_MASK: ffff

Initialize PATTERN TABLE
PT_SET: 512
PT_WAY: 4
SIG_DELTA_BIT: 7
C_SIG_BIT: 4
C_DELTA_BIT: 4

Initialize PREFETCH FILTER
FILTER_SET: 1024
MANA initialize 
tds: 2 tdm: 2
size MANA SINGLE: 15.5 KB
size MANA NULTIPLE: 0 KB
size HOBPT: 0.703125 KB
size SRQ: 0.14502 KB
size SABs: 0.290039 KB
size prefetch queue: 0.453125 KB
total: 17.0913 KB

*** ChampSim Multicore Out-of-Order Simulator ***

Warmup Instructions: 50000000
Simulation Instructions: 50000000
Number of CPUs: 1
LLC sets: 2048
LLC ways: 16
Off-chip DRAM Size: 4096 MB Channels: 1 Width: 64-bit Data Rate: 3200 MT/s

CPU 0 runs /home/mbaradaran/ChampSim/dpc3_traces/server_038.champsimtrace.xz
CPU 0 L1D next line prefetcher
Heartbeat CPU 0 instructions: 10000001 cycles: 3329321 heartbeat IPC: 3.00362 cumulative IPC: 3.00362 (Simulation time: 0 hr 1 min 53 sec) 
Heartbeat CPU 0 instructions: 20000003 cycles: 6661201 heartbeat IPC: 3.00131 cumulative IPC: 3.00246 (Simulation time: 0 hr 3 min 30 sec) 
Heartbeat CPU 0 instructions: 30000003 cycles: 9989319 heartbeat IPC: 3.0047 cumulative IPC: 3.00321 (Simulation time: 0 hr 4 min 56 sec) 
Heartbeat CPU 0 instructions: 40000001 cycles: 13321581 heartbeat IPC: 3.00096 cumulative IPC: 3.00265 (Simulation time: 0 hr 6 min 16 sec) 
Heartbeat CPU 0 instructions: 50000001 cycles: 16652241 heartbeat IPC: 3.00241 cumulative IPC: 3.0026 (Simulation time: 0 hr 7 min 38 sec) 

Warmup complete CPU 0 instructions: 50000001 cycles: 16652241 (Simulation time: 0 hr 7 min 38 sec) 

Heartbeat CPU 0 instructions: 60000002 cycles: 23248185 heartbeat IPC: 1.51608 cumulative IPC: 1.51608 (Simulation time: 0 hr 8 min 56 sec) 
Heartbeat CPU 0 instructions: 70000001 cycles: 29799771 heartbeat IPC: 1.52635 cumulative IPC: 1.5212 (Simulation time: 0 hr 10 min 12 sec) 
Heartbeat CPU 0 instructions: 80000000 cycles: 36371168 heartbeat IPC: 1.52175 cumulative IPC: 1.52138 (Simulation time: 0 hr 11 min 28 sec) 
Heartbeat CPU 0 instructions: 90000001 cycles: 42947839 heartbeat IPC: 1.52053 cumulative IPC: 1.52117 (Simulation time: 0 hr 12 min 42 sec) 
*** Reached end of trace for Core: 0 Repeating trace: /home/mbaradaran/ChampSim/dpc3_traces/server_038.champsimtrace.xz
Heartbeat CPU 0 instructions: 100000002 cycles: 49533352 heartbeat IPC: 1.51848 cumulative IPC: 1.52063 (Simulation time: 0 hr 13 min 57 sec) 
Finished CPU 0 instructions: 50000001 cycles: 32881111 cumulative IPC: 1.52063 (Simulation time: 0 hr 13 min 57 sec) 

ChampSim completed all CPUs

Region of Interest Statistics

CPU 0 cumulative IPC: 1.52063 instructions: 50000001 cycles: 32881111

SHEET
IPC : 1.52063

L1D TOTAL     ACCESS:   18988647  HIT:   18005296  MISS:     983351
L1D LOAD      ACCESS:    6503322  HIT:    6011090  MISS:     492232
L1D RFO       ACCESS:    6213841  HIT:    6148765  MISS:      65076
L1D PREFETCH  ACCESS:    6271484  HIT:    5845441  MISS:     426043
L1D WRITEBACK ACCESS:          0  HIT:          0  MISS:          0
L1D PREFETCH  REQUESTED:    6539219  ISSUED:    6388186  USEFUL:     118629  USELESS:     307416
L1D AVERAGE MISS LATENCY: 29.3159 cycles
L1D

SHEET
L1D-total_access : 18988647
L1D-total_hit : 18005296
L1D-total_miss : 983351
L1D-load_access : 6503322
L1D-load_hit : 6011090
L1D-load_miss : 492232
L1D-rfo_access : 6213841
L1D-rfo_hit : 6148765
L1D-rfo_miss : 65076
L1D-prefetch_access : 6271484
L1D-prefetch_hit : 5845441
L1D-prefetch_miss : 426043
L1D-writeback_access : 0
L1D-writeback_hit : 0
L1D-writeback_miss : 0
L1D-prefetch_requested : 6539219
L1D-prefetch_issued : 6388186
L1D-prefetch_useful : 118629
L1D-prefetch_useless : 307416
L1D-Avg_miss_latency : 29.3159

L1I TOTAL     ACCESS:   19054613  HIT:   12180013  MISS:    6874600
L1I LOAD      ACCESS:    9282603  HIT:    8376839  MISS:     905764
L1I RFO       ACCESS:          0  HIT:          0  MISS:          0
L1I PREFETCH  ACCESS:    9772010  HIT:    3803174  MISS:    5968836
L1I WRITEBACK ACCESS:          0  HIT:          0  MISS:          0
L1I PREFETCH  REQUESTED:   10798474  ISSUED:   10585809  USEFUL:    3818396  USELESS:    2150450
L1I AVERAGE MISS LATENCY: 14.4701 cycles
L1I

SHEET
L1I-total_access : 19054613
L1I-total_hit : 12180013
L1I-total_miss : 6874600
L1I-load_access : 9282603
L1I-load_hit : 8376839
L1I-load_miss : 905764
L1I-rfo_access : 0
L1I-rfo_hit : 0
L1I-rfo_miss : 0
L1I-prefetch_access : 9772010
L1I-prefetch_hit : 3803174
L1I-prefetch_miss : 5968836
L1I-writeback_access : 0
L1I-writeback_hit : 0
L1I-writeback_miss : 0
L1I-prefetch_requested : 10798474
L1I-prefetch_issued : 10585809
L1I-prefetch_useful : 3818396
L1I-prefetch_useless : 2150450
L1I-Avg_miss_latency : 14.4701

L2C TOTAL     ACCESS:   11518393  HIT:   11199738  MISS:     318655
L2C LOAD      ACCESS:    1131161  HIT:     987016  MISS:     144145
L2C RFO       ACCESS:      64794  HIT:      36428  MISS:      28366
L2C PREFETCH  ACCESS:   10030648  HIT:    9885317  MISS:     145331
L2C WRITEBACK ACCESS:     291790  HIT:     290977  MISS:        813
L2C PREFETCH  REQUESTED:    9807827  ISSUED:    9764868  USEFUL:       6250  USELESS:     138953
L2C AVERAGE MISS LATENCY: 44.809 cycles
L2C

SHEET
L2C-total_access : 11518393
L2C-total_hit : 11199738
L2C-total_miss : 318655
L2C-load_access : 1131161
L2C-load_hit : 987016
L2C-load_miss : 144145
L2C-rfo_access : 64794
L2C-rfo_hit : 36428
L2C-rfo_miss : 28366
L2C-prefetch_access : 10030648
L2C-prefetch_hit : 9885317
L2C-prefetch_miss : 145331
L2C-writeback_access : 291790
L2C-writeback_hit : 290977
L2C-writeback_miss : 813
L2C-prefetch_requested : 9807827
L2C-prefetch_issued : 9764868
L2C-prefetch_useful : 6250
L2C-prefetch_useless : 138953
L2C-Avg_miss_latency : 44.809

LLC TOTAL     ACCESS:    1892532  HIT:    1844639  MISS:      47893
LLC LOAD      ACCESS:     144104  HIT:     131722  MISS:      12382
LLC RFO       ACCESS:      28366  HIT:      23577  MISS:       4789
LLC PREFETCH  ACCESS:    1573576  HIT:    1543224  MISS:      30352
LLC WRITEBACK ACCESS:     146486  HIT:     146116  MISS:        370
LLC PREFETCH  REQUESTED:          0  ISSUED:          0  USEFUL:       3340  USELESS:      26206
LLC AVERAGE MISS LATENCY: 165.387 cycles
LLC

SHEET
LLC-total_access : 1892532
LLC-total_hit : 1844639
LLC-total_miss : 47893
LLC-load_access : 144104
LLC-load_hit : 131722
LLC-load_miss : 12382
LLC-rfo_access : 28366
LLC-rfo_hit : 23577
LLC-rfo_miss : 4789
LLC-prefetch_access : 1573576
LLC-prefetch_hit : 1543224
LLC-prefetch_miss : 30352
LLC-writeback_access : 146486
LLC-writeback_hit : 146116
LLC-writeback_miss : 370
LLC-prefetch_requested : 0
LLC-prefetch_issued : 0
LLC-prefetch_useful : 3340
LLC-prefetch_useless : 26206
LLC-Avg_miss_latency : 165.387

Major fault: 0 Minor fault: 5526



Printing Logs
statHeadFound: 834356
statHeadMissing: 474574
statStreamBufferHit: 13224559
statPrefetchEntryFound: 6662090
statCompactorMatch: 11286122
statStreamTrackerLookup: 14533489
statRecord: 3247367
statGetPointer: 1308930
statEnqueuePrefetch: 21089343
statPrefetchQueueIsFull: 180003
StreamBufferHitRate: 0.909937
Regions' size: 901
next_region_correct: 2587459
next_region_wrong: 658989
next_region_correct_prediction: 0.797012
statStreamBufferLookups: 1046411208
statL1iLookups: 168714744
statCompactorLookups: 523205604
morteza: start

SHEET
mana_table_access_counter : 10089442
hobp_table_access_counter : 25067241
sab_access_counter : 19886649
srq_access_counter : 16718208

morteza: end
CPU 0 L1D next line prefetcher final stats

DRAM Statistics
 CHANNEL 0
 RQ ROW_BUFFER_HIT:       7187  ROW_BUFFER_MISS:      40335
 DBUS_CONGESTED:      20313
 WQ ROW_BUFFER_HIT:        989  ROW_BUFFER_MISS:      10958  FULL:          0

 AVG_CONGESTED_CYCLE: 4

CPU 0 Branch Prediction Accuracy: 99.9279% MPKI: 0.12968 Average ROB Occupancy at Mispredict: 141.173

Branch types
NOT_BRANCH: 41006286 82.0126%
BRANCH_DIRECT_JUMP: 541914 1.08383%
BRANCH_INDIRECT: 59690 0.11938%
BRANCH_CONDITIONAL: 5915840 11.8317%
BRANCH_DIRECT_CALL: 1003587 2.00717%
BRANCH_INDIRECT_CALL: 234499 0.468998%
BRANCH_RETURN: 1238071 2.47614%
BRANCH_OTHER: 0 0%

