Initialize SIGNATURE TABLE
ST_SET: 1
ST_WAY: 256
ST_TAG_BIT: 16
ST_TAG_MASK: ffff

Initialize PATTERN TABLE
PT_SET: 512
PT_WAY: 4
SIG_DELTA_BIT: 7
C_SIG_BIT: 4
C_DELTA_BIT: 4

Initialize PREFETCH FILTER
FILTER_SET: 1024
MANA initialize 
tds: 2 tdm: 2
size MANA SINGLE: 15.5 KB
size MANA NULTIPLE: 0 KB
size HOBPT: 0.703125 KB
size SRQ: 0.14502 KB
size SABs: 0.290039 KB
size prefetch queue: 0.453125 KB
total: 17.0913 KB

*** ChampSim Multicore Out-of-Order Simulator ***

Warmup Instructions: 50000000
Simulation Instructions: 50000000
Number of CPUs: 1
LLC sets: 2048
LLC ways: 16
Off-chip DRAM Size: 4096 MB Channels: 1 Width: 64-bit Data Rate: 3200 MT/s

CPU 0 runs /home/mbaradaran/ChampSim/dpc3_traces/server_004.champsimtrace.xz
CPU 0 L1D next line prefetcher
Heartbeat CPU 0 instructions: 10000002 cycles: 3241258 heartbeat IPC: 3.08522 cumulative IPC: 3.08522 (Simulation time: 0 hr 1 min 42 sec) 
Heartbeat CPU 0 instructions: 20000002 cycles: 6585836 heartbeat IPC: 2.98991 cumulative IPC: 3.03682 (Simulation time: 0 hr 3 min 28 sec) 
Heartbeat CPU 0 instructions: 30000000 cycles: 11704741 heartbeat IPC: 1.95354 cumulative IPC: 2.56306 (Simulation time: 0 hr 5 min 46 sec) 
Heartbeat CPU 0 instructions: 40000003 cycles: 15462539 heartbeat IPC: 2.66113 cumulative IPC: 2.5869 (Simulation time: 0 hr 7 min 53 sec) 
Heartbeat CPU 0 instructions: 50000003 cycles: 18703495 heartbeat IPC: 3.08551 cumulative IPC: 2.6733 (Simulation time: 0 hr 9 min 45 sec) 

Warmup complete CPU 0 instructions: 50000003 cycles: 18703495 (Simulation time: 0 hr 9 min 45 sec) 

Heartbeat CPU 0 instructions: 60000002 cycles: 28197413 heartbeat IPC: 1.05331 cumulative IPC: 1.05331 (Simulation time: 0 hr 11 min 26 sec) 
Heartbeat CPU 0 instructions: 70000000 cycles: 37181150 heartbeat IPC: 1.11312 cumulative IPC: 1.08239 (Simulation time: 0 hr 13 min 6 sec) 
Heartbeat CPU 0 instructions: 80000001 cycles: 58409447 heartbeat IPC: 0.471069 cumulative IPC: 0.755554 (Simulation time: 0 hr 15 min 53 sec) 
Heartbeat CPU 0 instructions: 90000003 cycles: 74003354 heartbeat IPC: 0.641276 cumulative IPC: 0.723329 (Simulation time: 0 hr 17 min 50 sec) 
Heartbeat CPU 0 instructions: 100000003 cycles: 83674066 heartbeat IPC: 1.03405 cumulative IPC: 0.769579 (Simulation time: 0 hr 19 min 32 sec) 
Finished CPU 0 instructions: 50000000 cycles: 64970571 cumulative IPC: 0.769579 (Simulation time: 0 hr 19 min 32 sec) 

ChampSim completed all CPUs

Region of Interest Statistics

CPU 0 cumulative IPC: 0.769579 instructions: 50000000 cycles: 64970571

SHEET
IPC : 0.769579

L1D TOTAL     ACCESS:   21906724  HIT:   17835282  MISS:    4071442
L1D LOAD      ACCESS:    8730861  HIT:    6714354  MISS:    2016507
L1D RFO       ACCESS:    4653652  HIT:    4546686  MISS:     106966
L1D PREFETCH  ACCESS:    8522211  HIT:    6574242  MISS:    1947969
L1D WRITEBACK ACCESS:          0  HIT:          0  MISS:          0
L1D PREFETCH  REQUESTED:    8767408  ISSUED:    8676865  USEFUL:     108203  USELESS:    1839754
L1D AVERAGE MISS LATENCY: 23.0582 cycles
L1D

SHEET
L1D-total_access : 21906724
L1D-total_hit : 17835282
L1D-total_miss : 4071442
L1D-load_access : 8730861
L1D-load_hit : 6714354
L1D-load_miss : 2016507
L1D-rfo_access : 4653652
L1D-rfo_hit : 4546686
L1D-rfo_miss : 106966
L1D-prefetch_access : 8522211
L1D-prefetch_hit : 6574242
L1D-prefetch_miss : 1947969
L1D-writeback_access : 0
L1D-writeback_hit : 0
L1D-writeback_miss : 0
L1D-prefetch_requested : 8767408
L1D-prefetch_issued : 8676865
L1D-prefetch_useful : 108203
L1D-prefetch_useless : 1839754
L1D-Avg_miss_latency : 23.0582

L1I TOTAL     ACCESS:   17548802  HIT:   14577470  MISS:    2971332
L1I LOAD      ACCESS:   10679537  HIT:   10193062  MISS:     486475
L1I RFO       ACCESS:          0  HIT:          0  MISS:          0
L1I PREFETCH  ACCESS:    6869265  HIT:    4384408  MISS:    2484857
L1I WRITEBACK ACCESS:          0  HIT:          0  MISS:          0
L1I PREFETCH  REQUESTED:    7666509  ISSUED:    7252730  USEFUL:    1244614  USELESS:    1240225
L1I AVERAGE MISS LATENCY: 24.4889 cycles
L1I

SHEET
L1I-total_access : 17548802
L1I-total_hit : 14577470
L1I-total_miss : 2971332
L1I-load_access : 10679537
L1I-load_hit : 10193062
L1I-load_miss : 486475
L1I-rfo_access : 0
L1I-rfo_hit : 0
L1I-rfo_miss : 0
L1I-prefetch_access : 6869265
L1I-prefetch_hit : 4384408
L1I-prefetch_miss : 2484857
L1I-writeback_access : 0
L1I-writeback_hit : 0
L1I-writeback_miss : 0
L1I-prefetch_requested : 7666509
L1I-prefetch_issued : 7252730
L1I-prefetch_useful : 1244614
L1I-prefetch_useless : 1240225
L1I-Avg_miss_latency : 24.4889

L2C TOTAL     ACCESS:    9049801  HIT:    7956688  MISS:    1093113
L2C LOAD      ACCESS:    2400538  HIT:    2037409  MISS:     363129
L2C RFO       ACCESS:     105654  HIT:      55550  MISS:      50104
L2C PREFETCH  ACCESS:    6298569  HIT:    5621132  MISS:     677437
L2C WRITEBACK ACCESS:     245040  HIT:     242597  MISS:       2443
L2C PREFETCH  REQUESTED:    8417144  ISSUED:    8410807  USEFUL:      67350  USELESS:     608869
L2C AVERAGE MISS LATENCY: 56.0373 cycles
L2C

SHEET
L2C-total_access : 9049801
L2C-total_hit : 7956688
L2C-total_miss : 1093113
L2C-load_access : 2400538
L2C-load_hit : 2037409
L2C-load_miss : 363129
L2C-rfo_access : 105654
L2C-rfo_hit : 55550
L2C-rfo_miss : 50104
L2C-prefetch_access : 6298569
L2C-prefetch_hit : 5621132
L2C-prefetch_miss : 677437
L2C-writeback_access : 245040
L2C-writeback_hit : 242597
L2C-writeback_miss : 2443
L2C-prefetch_requested : 8417144
L2C-prefetch_issued : 8410807
L2C-prefetch_useful : 67350
L2C-prefetch_useless : 608869
L2C-Avg_miss_latency : 56.0373

LLC TOTAL     ACCESS:    2895203  HIT:    2648245  MISS:     246958
LLC LOAD      ACCESS:     361521  HIT:     305486  MISS:      56035
LLC RFO       ACCESS:      50100  HIT:      34048  MISS:      16052
LLC PREFETCH  ACCESS:    2339470  HIT:    2164862  MISS:     174608
LLC WRITEBACK ACCESS:     144112  HIT:     143849  MISS:        263
LLC PREFETCH  REQUESTED:          0  ISSUED:          0  USEFUL:      27335  USELESS:     146111
LLC AVERAGE MISS LATENCY: 169.518 cycles
LLC

SHEET
LLC-total_access : 2895203
LLC-total_hit : 2648245
LLC-total_miss : 246958
LLC-load_access : 361521
LLC-load_hit : 305486
LLC-load_miss : 56035
LLC-rfo_access : 50100
LLC-rfo_hit : 34048
LLC-rfo_miss : 16052
LLC-prefetch_access : 2339470
LLC-prefetch_hit : 2164862
LLC-prefetch_miss : 174608
LLC-writeback_access : 144112
LLC-writeback_hit : 143849
LLC-writeback_miss : 263
LLC-prefetch_requested : 0
LLC-prefetch_issued : 0
LLC-prefetch_useful : 27335
LLC-prefetch_useless : 146111
LLC-Avg_miss_latency : 169.518

Major fault: 0 Minor fault: 7592



Printing Logs
statHeadFound: 549195
statHeadMissing: 1547900
statStreamBufferHit: 13234025
statPrefetchEntryFound: 4480550
statCompactorMatch: 13469876
statStreamTrackerLookup: 15331120
statRecord: 1861244
statGetPointer: 2097095
statEnqueuePrefetch: 14225050
statPrefetchQueueIsFull: 106806
StreamBufferHitRate: 0.863213
Regions' size: 8646
next_region_correct: 1516230
next_region_wrong: 336350
next_region_correct_prediction: 0.818442
statStreamBufferLookups: 1103840640
statL1iLookups: 113800400
statCompactorLookups: 551920320
morteza: start

SHEET
mana_table_access_counter : 6448582
hobp_table_access_counter : 20420727
sab_access_counter : 17714575
srq_access_counter : 14057654

morteza: end
CPU 0 L1D next line prefetcher final stats

DRAM Statistics
 CHANNEL 0
 RQ ROW_BUFFER_HIT:      49657  ROW_BUFFER_MISS:     197012
 DBUS_CONGESTED:      98900
 WQ ROW_BUFFER_HIT:      11618  ROW_BUFFER_MISS:      44507  FULL:          0

 AVG_CONGESTED_CYCLE: 5

CPU 0 Branch Prediction Accuracy: 98.1603% MPKI: 3.89124 Average ROB Occupancy at Mispredict: 56.6597

Branch types
NOT_BRANCH: 39423761 78.8475%
BRANCH_DIRECT_JUMP: 551642 1.10328%
BRANCH_INDIRECT: 139368 0.278736%
BRANCH_CONDITIONAL: 7920860 15.8417%
BRANCH_DIRECT_CALL: 776072 1.55214%
BRANCH_INDIRECT_CALL: 194644 0.389288%
BRANCH_RETURN: 993311 1.98662%
BRANCH_OTHER: 0 0%

