Initialize SIGNATURE TABLE
ST_SET: 1
ST_WAY: 256
ST_TAG_BIT: 16
ST_TAG_MASK: ffff

Initialize PATTERN TABLE
PT_SET: 512
PT_WAY: 4
SIG_DELTA_BIT: 7
C_SIG_BIT: 4
C_DELTA_BIT: 4

Initialize PREFETCH FILTER
FILTER_SET: 1024
MANA initialize 
tds: 2 tdm: 2
size MANA SINGLE: 15.5 KB
size MANA NULTIPLE: 0 KB
size HOBPT: 0.703125 KB
size SRQ: 0.14502 KB
size SABs: 0.290039 KB
size prefetch queue: 0.453125 KB
total: 17.0913 KB

*** ChampSim Multicore Out-of-Order Simulator ***

Warmup Instructions: 50000000
Simulation Instructions: 50000000
Number of CPUs: 1
LLC sets: 2048
LLC ways: 16
Off-chip DRAM Size: 4096 MB Channels: 1 Width: 64-bit Data Rate: 3200 MT/s

CPU 0 runs /home/mbaradaran/ChampSim/dpc3_traces/server_018.champsimtrace.xz
CPU 0 L1D next line prefetcher
Heartbeat CPU 0 instructions: 10000003 cycles: 3625366 heartbeat IPC: 2.75834 cumulative IPC: 2.75834 (Simulation time: 0 hr 1 min 56 sec) 
Heartbeat CPU 0 instructions: 20000001 cycles: 7255156 heartbeat IPC: 2.75498 cumulative IPC: 2.75666 (Simulation time: 0 hr 3 min 59 sec) 
Heartbeat CPU 0 instructions: 30000003 cycles: 10736384 heartbeat IPC: 2.87255 cumulative IPC: 2.79424 (Simulation time: 0 hr 5 min 59 sec) 
Heartbeat CPU 0 instructions: 40000000 cycles: 14254749 heartbeat IPC: 2.84223 cumulative IPC: 2.80608 (Simulation time: 0 hr 7 min 49 sec) 
Heartbeat CPU 0 instructions: 50000003 cycles: 17880287 heartbeat IPC: 2.75821 cumulative IPC: 2.79638 (Simulation time: 0 hr 9 min 53 sec) 

Warmup complete CPU 0 instructions: 50000003 cycles: 17880287 (Simulation time: 0 hr 9 min 53 sec) 

Heartbeat CPU 0 instructions: 60000000 cycles: 35219264 heartbeat IPC: 0.576735 cumulative IPC: 0.576735 (Simulation time: 0 hr 12 min 35 sec) 
Heartbeat CPU 0 instructions: 70000001 cycles: 52611639 heartbeat IPC: 0.574965 cumulative IPC: 0.575849 (Simulation time: 0 hr 15 min 23 sec) 
Heartbeat CPU 0 instructions: 80000000 cycles: 69909777 heartbeat IPC: 0.578097 cumulative IPC: 0.576596 (Simulation time: 0 hr 18 min 8 sec) 
Heartbeat CPU 0 instructions: 90000002 cycles: 87227918 heartbeat IPC: 0.577429 cumulative IPC: 0.576804 (Simulation time: 0 hr 21 min 3 sec) 
Heartbeat CPU 0 instructions: 100000001 cycles: 104560585 heartbeat IPC: 0.576945 cumulative IPC: 0.576832 (Simulation time: 0 hr 23 min 38 sec) 
Finished CPU 0 instructions: 50000002 cycles: 86680299 cumulative IPC: 0.576832 (Simulation time: 0 hr 23 min 38 sec) 

ChampSim completed all CPUs

Region of Interest Statistics

CPU 0 cumulative IPC: 0.576832 instructions: 50000002 cycles: 86680299

SHEET
IPC : 0.576832

L1D TOTAL     ACCESS:   18759255  HIT:   16541604  MISS:    2217651
L1D LOAD      ACCESS:    7120207  HIT:    6396312  MISS:     723895
L1D RFO       ACCESS:    5800071  HIT:    4847836  MISS:     952235
L1D PREFETCH  ACCESS:    5838977  HIT:    5297456  MISS:     541521
L1D WRITEBACK ACCESS:          0  HIT:          0  MISS:          0
L1D PREFETCH  REQUESTED:    7164178  ISSUED:    6960571  USEFUL:     201822  USELESS:     339788
L1D AVERAGE MISS LATENCY: 173.586 cycles
L1D

SHEET
L1D-total_access : 18759255
L1D-total_hit : 16541604
L1D-total_miss : 2217651
L1D-load_access : 7120207
L1D-load_hit : 6396312
L1D-load_miss : 723895
L1D-rfo_access : 5800071
L1D-rfo_hit : 4847836
L1D-rfo_miss : 952235
L1D-prefetch_access : 5838977
L1D-prefetch_hit : 5297456
L1D-prefetch_miss : 541521
L1D-writeback_access : 0
L1D-writeback_hit : 0
L1D-writeback_miss : 0
L1D-prefetch_requested : 7164178
L1D-prefetch_issued : 6960571
L1D-prefetch_useful : 201822
L1D-prefetch_useless : 339788
L1D-Avg_miss_latency : 173.586

L1I TOTAL     ACCESS:   17093832  HIT:   12921615  MISS:    4172217
L1I LOAD      ACCESS:   10054721  HIT:    9545766  MISS:     508955
L1I RFO       ACCESS:          0  HIT:          0  MISS:          0
L1I PREFETCH  ACCESS:    7039111  HIT:    3375849  MISS:    3663262
L1I WRITEBACK ACCESS:          0  HIT:          0  MISS:          0
L1I PREFETCH  REQUESTED:    7629265  ISSUED:    7460319  USEFUL:    2705996  USELESS:     957278
L1I AVERAGE MISS LATENCY: 16.478 cycles
L1I

SHEET
L1I-total_access : 17093832
L1I-total_hit : 12921615
L1I-total_miss : 4172217
L1I-load_access : 10054721
L1I-load_hit : 9545766
L1I-load_miss : 508955
L1I-rfo_access : 0
L1I-rfo_hit : 0
L1I-rfo_miss : 0
L1I-prefetch_access : 7039111
L1I-prefetch_hit : 3375849
L1I-prefetch_miss : 3663262
L1I-writeback_access : 0
L1I-writeback_hit : 0
L1I-writeback_miss : 0
L1I-prefetch_requested : 7629265
L1I-prefetch_issued : 7460319
L1I-prefetch_useful : 2705996
L1I-prefetch_useless : 957278
L1I-Avg_miss_latency : 16.478

L2C TOTAL     ACCESS:    9157755  HIT:    7305765  MISS:    1851990
L2C LOAD      ACCESS:     869888  HIT:     598319  MISS:     271569
L2C RFO       ACCESS:     951745  HIT:      19919  MISS:     931826
L2C PREFETCH  ACCESS:    6166091  HIT:    5520180  MISS:     645911
L2C WRITEBACK ACCESS:    1170031  HIT:    1167347  MISS:       2684
L2C PREFETCH  REQUESTED:    6370238  ISSUED:    6358216  USEFUL:      31075  USELESS:     615696
L2C AVERAGE MISS LATENCY: 211.286 cycles
L2C

SHEET
L2C-total_access : 9157755
L2C-total_hit : 7305765
L2C-total_miss : 1851990
L2C-load_access : 869888
L2C-load_hit : 598319
L2C-load_miss : 271569
L2C-rfo_access : 951745
L2C-rfo_hit : 19919
L2C-rfo_miss : 931826
L2C-prefetch_access : 6166091
L2C-prefetch_hit : 5520180
L2C-prefetch_miss : 645911
L2C-writeback_access : 1170031
L2C-writeback_hit : 1167347
L2C-writeback_miss : 2684
L2C-prefetch_requested : 6370238
L2C-prefetch_issued : 6358216
L2C-prefetch_useful : 31075
L2C-prefetch_useless : 615696
L2C-Avg_miss_latency : 211.286

LLC TOTAL     ACCESS:    4590560  HIT:    3136914  MISS:    1453646
LLC LOAD      ACCESS:     271479  HIT:     172514  MISS:      98965
LLC RFO       ACCESS:     931820  HIT:     137141  MISS:     794679
LLC PREFETCH  ACCESS:    2286049  HIT:    1728069  MISS:     557980
LLC WRITEBACK ACCESS:    1101212  HIT:    1099190  MISS:       2022
LLC PREFETCH  REQUESTED:          0  ISSUED:          0  USEFUL:      31954  USELESS:     525927
LLC AVERAGE MISS LATENCY: 278.87 cycles
LLC

SHEET
LLC-total_access : 4590560
LLC-total_hit : 3136914
LLC-total_miss : 1453646
LLC-load_access : 271479
LLC-load_hit : 172514
LLC-load_miss : 98965
LLC-rfo_access : 931820
LLC-rfo_hit : 137141
LLC-rfo_miss : 794679
LLC-prefetch_access : 2286049
LLC-prefetch_hit : 1728069
LLC-prefetch_miss : 557980
LLC-writeback_access : 1101212
LLC-writeback_hit : 1099190
LLC-writeback_miss : 2022
LLC-prefetch_requested : 0
LLC-prefetch_issued : 0
LLC-prefetch_useful : 31954
LLC-prefetch_useless : 525927
LLC-Avg_miss_latency : 278.87

Major fault: 0 Minor fault: 22442



Printing Logs
statHeadFound: 475580
statHeadMissing: 1122508
statStreamBufferHit: 11553195
statPrefetchEntryFound: 4516470
statCompactorMatch: 10924208
statStreamTrackerLookup: 13151283
statRecord: 2227075
statGetPointer: 1598088
statEnqueuePrefetch: 14159717
statPrefetchQueueIsFull: 20244
StreamBufferHitRate: 0.878484
Regions' size: 1322
next_region_correct: 1881169
next_region_wrong: 344566
next_region_correct_prediction: 0.84519
statStreamBufferLookups: 946892376
statL1iLookups: 113277736
statCompactorLookups: 473446188
morteza: start

SHEET
mana_table_access_counter : 6763771
hobp_table_access_counter : 19837327
sab_access_counter : 16069665
srq_access_counter : 14296184

morteza: end
CPU 0 L1D next line prefetcher final stats

DRAM Statistics
 CHANNEL 0
 RQ ROW_BUFFER_HIT:     427392  ROW_BUFFER_MISS:    1023978
 DBUS_CONGESTED:    1449265
 WQ ROW_BUFFER_HIT:     251584  ROW_BUFFER_MISS:     644026  FULL:          0

 AVG_CONGESTED_CYCLE: 6

CPU 0 Branch Prediction Accuracy: 99.7114% MPKI: 0.47678 Average ROB Occupancy at Mispredict: 206.612

Branch types
NOT_BRANCH: 41741008 83.482%
BRANCH_DIRECT_JUMP: 458652 0.917304%
BRANCH_INDIRECT: 48282 0.096564%
BRANCH_CONDITIONAL: 5930881 11.8618%
BRANCH_DIRECT_CALL: 744230 1.48846%
BRANCH_INDIRECT_CALL: 166336 0.332672%
BRANCH_RETURN: 910589 1.82118%
BRANCH_OTHER: 0 0%

