Initialize SIGNATURE TABLE
ST_SET: 1
ST_WAY: 256
ST_TAG_BIT: 16
ST_TAG_MASK: ffff

Initialize PATTERN TABLE
PT_SET: 512
PT_WAY: 4
SIG_DELTA_BIT: 7
C_SIG_BIT: 4
C_DELTA_BIT: 4

Initialize PREFETCH FILTER
FILTER_SET: 1024
MANA initialize 
tds: 2 tdm: 2
size MANA SINGLE: 15.5 KB
size MANA NULTIPLE: 0 KB
size HOBPT: 0.703125 KB
size SRQ: 0.14502 KB
size SABs: 0.290039 KB
size prefetch queue: 0.453125 KB
total: 17.0913 KB

*** ChampSim Multicore Out-of-Order Simulator ***

Warmup Instructions: 50000000
Simulation Instructions: 50000000
Number of CPUs: 1
LLC sets: 2048
LLC ways: 16
Off-chip DRAM Size: 4096 MB Channels: 1 Width: 64-bit Data Rate: 3200 MT/s

CPU 0 runs /home/mbaradaran/ChampSim/dpc3_traces/spec_gcc_003.champsimtrace.xz
CPU 0 L1D next line prefetcher
Heartbeat CPU 0 instructions: 10000001 cycles: 3488465 heartbeat IPC: 2.86659 cumulative IPC: 2.86659 (Simulation time: 0 hr 1 min 34 sec) 
Heartbeat CPU 0 instructions: 20000000 cycles: 6964527 heartbeat IPC: 2.87682 cumulative IPC: 2.8717 (Simulation time: 0 hr 2 min 58 sec) 
Heartbeat CPU 0 instructions: 30000002 cycles: 10414702 heartbeat IPC: 2.8984 cumulative IPC: 2.88054 (Simulation time: 0 hr 4 min 2 sec) 
Heartbeat CPU 0 instructions: 40000000 cycles: 13891332 heartbeat IPC: 2.87635 cumulative IPC: 2.87949 (Simulation time: 0 hr 5 min 3 sec) 
Heartbeat CPU 0 instructions: 50000001 cycles: 17212001 heartbeat IPC: 3.01144 cumulative IPC: 2.90495 (Simulation time: 0 hr 6 min 2 sec) 

Warmup complete CPU 0 instructions: 50000001 cycles: 17212001 (Simulation time: 0 hr 6 min 2 sec) 

Heartbeat CPU 0 instructions: 60000000 cycles: 57954467 heartbeat IPC: 0.245444 cumulative IPC: 0.245444 (Simulation time: 0 hr 8 min 29 sec) 
Heartbeat CPU 0 instructions: 70000000 cycles: 101732444 heartbeat IPC: 0.228425 cumulative IPC: 0.236629 (Simulation time: 0 hr 11 min 2 sec) 
Heartbeat CPU 0 instructions: 80000002 cycles: 146168186 heartbeat IPC: 0.225044 cumulative IPC: 0.232637 (Simulation time: 0 hr 13 min 37 sec) 
Heartbeat CPU 0 instructions: 90000002 cycles: 183755764 heartbeat IPC: 0.266045 cumulative IPC: 0.240177 (Simulation time: 0 hr 15 min 51 sec) 
Heartbeat CPU 0 instructions: 100000001 cycles: 230568622 heartbeat IPC: 0.213617 cumulative IPC: 0.234349 (Simulation time: 0 hr 18 min 28 sec) 
Finished CPU 0 instructions: 50000000 cycles: 213356621 cumulative IPC: 0.234349 (Simulation time: 0 hr 18 min 28 sec) 

ChampSim completed all CPUs

Region of Interest Statistics

CPU 0 cumulative IPC: 0.234349 instructions: 50000000 cycles: 213356621

SHEET
IPC : 0.234349

L1D TOTAL     ACCESS:   17120698  HIT:   11396320  MISS:    5724378
L1D LOAD      ACCESS:    4685954  HIT:    4303212  MISS:     382742
L1D RFO       ACCESS:    8234550  HIT:    3182890  MISS:    5051660
L1D PREFETCH  ACCESS:    4200194  HIT:    3910218  MISS:     289976
L1D WRITEBACK ACCESS:          0  HIT:          0  MISS:          0
L1D PREFETCH  REQUESTED:    4704737  ISSUED:    4647020  USEFUL:     152466  USELESS:     137689
L1D AVERAGE MISS LATENCY: 505.773 cycles
L1D

SHEET
L1D-total_access : 17120698
L1D-total_hit : 11396320
L1D-total_miss : 5724378
L1D-load_access : 4685954
L1D-load_hit : 4303212
L1D-load_miss : 382742
L1D-rfo_access : 8234550
L1D-rfo_hit : 3182890
L1D-rfo_miss : 5051660
L1D-prefetch_access : 4200194
L1D-prefetch_hit : 3910218
L1D-prefetch_miss : 289976
L1D-writeback_access : 0
L1D-writeback_hit : 0
L1D-writeback_miss : 0
L1D-prefetch_requested : 4704737
L1D-prefetch_issued : 4647020
L1D-prefetch_useful : 152466
L1D-prefetch_useless : 137689
L1D-Avg_miss_latency : 505.773

L1I TOTAL     ACCESS:   16523803  HIT:   14260548  MISS:    2263255
L1I LOAD      ACCESS:   11307422  HIT:   10892564  MISS:     414858
L1I RFO       ACCESS:          0  HIT:          0  MISS:          0
L1I PREFETCH  ACCESS:    5216381  HIT:    3367984  MISS:    1848397
L1I WRITEBACK ACCESS:          0  HIT:          0  MISS:          0
L1I PREFETCH  REQUESTED:    6712408  ISSUED:    5762255  USEFUL:     828265  USELESS:    1020100
L1I AVERAGE MISS LATENCY: 34.7591 cycles
L1I

SHEET
L1I-total_access : 16523803
L1I-total_hit : 14260548
L1I-total_miss : 2263255
L1I-load_access : 11307422
L1I-load_hit : 10892564
L1I-load_miss : 414858
L1I-rfo_access : 0
L1I-rfo_hit : 0
L1I-rfo_miss : 0
L1I-prefetch_access : 5216381
L1I-prefetch_hit : 3367984
L1I-prefetch_miss : 1848397
L1I-writeback_access : 0
L1I-writeback_hit : 0
L1I-writeback_miss : 0
L1I-prefetch_requested : 6712408
L1I-prefetch_issued : 5762255
L1I-prefetch_useful : 828265
L1I-prefetch_useless : 1020100
L1I-Avg_miss_latency : 34.7591

L2C TOTAL     ACCESS:   13818256  HIT:    7750022  MISS:    6068234
L2C LOAD      ACCESS:     536493  HIT:     285723  MISS:     250770
L2C RFO       ACCESS:    5049884  HIT:       6514  MISS:    5043370
L2C PREFETCH  ACCESS:    3073971  HIT:    2300093  MISS:     773878
L2C WRITEBACK ACCESS:    5157908  HIT:    5157692  MISS:        216
L2C PREFETCH  REQUESTED:    3218890  ISSUED:    3217903  USEFUL:      99584  USELESS:     671150
L2C AVERAGE MISS LATENCY: 474.05 cycles
L2C

SHEET
L2C-total_access : 13818256
L2C-total_hit : 7750022
L2C-total_miss : 6068234
L2C-load_access : 536493
L2C-load_hit : 285723
L2C-load_miss : 250770
L2C-rfo_access : 5049884
L2C-rfo_hit : 6514
L2C-rfo_miss : 5043370
L2C-prefetch_access : 3073971
L2C-prefetch_hit : 2300093
L2C-prefetch_miss : 773878
L2C-writeback_access : 5157908
L2C-writeback_hit : 5157692
L2C-writeback_miss : 216
L2C-prefetch_requested : 3218890
L2C-prefetch_issued : 3217903
L2C-prefetch_useful : 99584
L2C-prefetch_useless : 671150
L2C-Avg_miss_latency : 474.05

LLC TOTAL     ACCESS:   12256307  HIT:    7525744  MISS:    4730563
LLC LOAD      ACCESS:     250734  HIT:     186455  MISS:      64279
LLC RFO       ACCESS:    5043371  HIT:     612590  MISS:    4430781
LLC PREFETCH  ACCESS:    1828448  HIT:    1592945  MISS:     235503
LLC WRITEBACK ACCESS:    5133754  HIT:    5133754  MISS:          0
LLC PREFETCH  REQUESTED:          0  ISSUED:          0  USEFUL:      19596  USELESS:     215513
LLC AVERAGE MISS LATENCY: 576.877 cycles
LLC

SHEET
LLC-total_access : 12256307
LLC-total_hit : 7525744
LLC-total_miss : 4730563
LLC-load_access : 250734
LLC-load_hit : 186455
LLC-load_miss : 64279
LLC-rfo_access : 5043371
LLC-rfo_hit : 612590
LLC-rfo_miss : 4430781
LLC-prefetch_access : 1828448
LLC-prefetch_hit : 1592945
LLC-prefetch_miss : 235503
LLC-writeback_access : 5133755
LLC-writeback_hit : 5133755
LLC-writeback_miss : 0
LLC-prefetch_requested : 0
LLC-prefetch_issued : 0
LLC-prefetch_useful : 19596
LLC-prefetch_useless : 215513
LLC-Avg_miss_latency : 576.877

Major fault: 0 Minor fault: 2817



Printing Logs
statHeadFound: 530343
statHeadMissing: 2099820
statStreamBufferHit: 7325334
statPrefetchEntryFound: 3471943
statCompactorMatch: 8991732
statStreamTrackerLookup: 9955497
statRecord: 963765
statGetPointer: 2630163
statEnqueuePrefetch: 10902635
statPrefetchQueueIsFull: 114015
StreamBufferHitRate: 0.735808
Regions' size: 1470
next_region_correct: 561249
next_region_wrong: 401028
next_region_correct_prediction: 0.583251
statStreamBufferLookups: 716795784
statL1iLookups: 87221080
statCompactorLookups: 358397892
morteza: start

SHEET
mana_table_access_counter : 4549705
hobp_table_access_counter : 17961637
sab_access_counter : 10797277
srq_access_counter : 9325610

morteza: end
CPU 0 L1D next line prefetcher final stats

DRAM Statistics
 CHANNEL 0
 RQ ROW_BUFFER_HIT:    1427607  ROW_BUFFER_MISS:    3302897
 DBUS_CONGESTED:    8222072
 WQ ROW_BUFFER_HIT:    1195008  ROW_BUFFER_MISS:    3264926  FULL:          0

 AVG_CONGESTED_CYCLE: 6

CPU 0 Branch Prediction Accuracy: 99.665% MPKI: 0.78342 Average ROB Occupancy at Mispredict: 95.7746

Branch types
NOT_BRANCH: 38305862 76.6117%
BRANCH_DIRECT_JUMP: 384282 0.768564%
BRANCH_INDIRECT: 71949 0.143898%
BRANCH_CONDITIONAL: 9879826 19.7597%
BRANCH_DIRECT_CALL: 650586 1.30117%
BRANCH_INDIRECT_CALL: 28456 0.056912%
BRANCH_RETURN: 679046 1.35809%
BRANCH_OTHER: 0 0%

