Initialize SIGNATURE TABLE
ST_SET: 1
ST_WAY: 256
ST_TAG_BIT: 16
ST_TAG_MASK: ffff

Initialize PATTERN TABLE
PT_SET: 512
PT_WAY: 4
SIG_DELTA_BIT: 7
C_SIG_BIT: 4
C_DELTA_BIT: 4

Initialize PREFETCH FILTER
FILTER_SET: 1024
MANA initialize 
tds: 2 tdm: 2
size MANA SINGLE: 15.5 KB
size MANA NULTIPLE: 0 KB
size HOBPT: 0.703125 KB
size SRQ: 0.14502 KB
size SABs: 0.290039 KB
size prefetch queue: 0.453125 KB
total: 17.0913 KB

*** ChampSim Multicore Out-of-Order Simulator ***

Warmup Instructions: 50000000
Simulation Instructions: 50000000
Number of CPUs: 1
LLC sets: 2048
LLC ways: 16
Off-chip DRAM Size: 4096 MB Channels: 1 Width: 64-bit Data Rate: 3200 MT/s

CPU 0 runs /home/mbaradaran/ChampSim/dpc3_traces/spec_gobmk_002.champsimtrace.xz
CPU 0 L1D next line prefetcher
Heartbeat CPU 0 instructions: 10000001 cycles: 3287783 heartbeat IPC: 3.04156 cumulative IPC: 3.04156 (Simulation time: 0 hr 1 min 24 sec) 
Heartbeat CPU 0 instructions: 20000000 cycles: 6619641 heartbeat IPC: 3.00133 cumulative IPC: 3.02131 (Simulation time: 0 hr 2 min 53 sec) 
Heartbeat CPU 0 instructions: 30000000 cycles: 9957911 heartbeat IPC: 2.99556 cumulative IPC: 3.01268 (Simulation time: 0 hr 4 min 0 sec) 
Heartbeat CPU 0 instructions: 40000000 cycles: 13267690 heartbeat IPC: 3.02135 cumulative IPC: 3.01484 (Simulation time: 0 hr 5 min 9 sec) 
Heartbeat CPU 0 instructions: 50000003 cycles: 16531448 heartbeat IPC: 3.06395 cumulative IPC: 3.02454 (Simulation time: 0 hr 6 min 15 sec) 

Warmup complete CPU 0 instructions: 50000003 cycles: 16531448 (Simulation time: 0 hr 6 min 15 sec) 

Heartbeat CPU 0 instructions: 60000003 cycles: 24686213 heartbeat IPC: 1.22628 cumulative IPC: 1.22628 (Simulation time: 0 hr 7 min 4 sec) 
Heartbeat CPU 0 instructions: 70000001 cycles: 32778199 heartbeat IPC: 1.23579 cumulative IPC: 1.23102 (Simulation time: 0 hr 7 min 53 sec) 
Heartbeat CPU 0 instructions: 80000002 cycles: 40734525 heartbeat IPC: 1.25686 cumulative IPC: 1.23951 (Simulation time: 0 hr 8 min 41 sec) 
Heartbeat CPU 0 instructions: 90000000 cycles: 48877387 heartbeat IPC: 1.22807 cumulative IPC: 1.23663 (Simulation time: 0 hr 9 min 27 sec) 
Heartbeat CPU 0 instructions: 100000003 cycles: 57341818 heartbeat IPC: 1.18141 cumulative IPC: 1.22518 (Simulation time: 0 hr 10 min 13 sec) 
Finished CPU 0 instructions: 50000000 cycles: 40810370 cumulative IPC: 1.22518 (Simulation time: 0 hr 10 min 13 sec) 

ChampSim completed all CPUs

Region of Interest Statistics

CPU 0 cumulative IPC: 1.22518 instructions: 50000000 cycles: 40810370

SHEET
IPC : 1.22518

L1D TOTAL     ACCESS:   17904357  HIT:   17781219  MISS:     123138
L1D LOAD      ACCESS:    6794994  HIT:    6760799  MISS:      34195
L1D RFO       ACCESS:    4393322  HIT:    4350683  MISS:      42639
L1D PREFETCH  ACCESS:    6716041  HIT:    6669737  MISS:      46304
L1D WRITEBACK ACCESS:          0  HIT:          0  MISS:          0
L1D PREFETCH  REQUESTED:    6797400  ISSUED:    6729737  USEFUL:      17246  USELESS:      29240
L1D AVERAGE MISS LATENCY: 50.169 cycles
L1D

SHEET
L1D-total_access : 17904357
L1D-total_hit : 17781219
L1D-total_miss : 123138
L1D-load_access : 6794994
L1D-load_hit : 6760799
L1D-load_miss : 34195
L1D-rfo_access : 4393322
L1D-rfo_hit : 4350683
L1D-rfo_miss : 42639
L1D-prefetch_access : 6716041
L1D-prefetch_hit : 6669737
L1D-prefetch_miss : 46304
L1D-writeback_access : 0
L1D-writeback_hit : 0
L1D-writeback_miss : 0
L1D-prefetch_requested : 6797400
L1D-prefetch_issued : 6729737
L1D-prefetch_useful : 17246
L1D-prefetch_useless : 29240
L1D-Avg_miss_latency : 50.169

L1I TOTAL     ACCESS:   22139864  HIT:   18063974  MISS:    4075890
L1I LOAD      ACCESS:    8990083  HIT:    8419403  MISS:     570680
L1I RFO       ACCESS:          0  HIT:          0  MISS:          0
L1I PREFETCH  ACCESS:   13149781  HIT:    9644571  MISS:    3505210
L1I WRITEBACK ACCESS:          0  HIT:          0  MISS:          0
L1I PREFETCH  REQUESTED:   15417401  ISSUED:   14311581  USEFUL:    1698177  USELESS:    1807037
L1I AVERAGE MISS LATENCY: 14.4704 cycles
L1I

SHEET
L1I-total_access : 22139864
L1I-total_hit : 18063974
L1I-total_miss : 4075890
L1I-load_access : 8990083
L1I-load_hit : 8419403
L1I-load_miss : 570680
L1I-rfo_access : 0
L1I-rfo_hit : 0
L1I-rfo_miss : 0
L1I-prefetch_access : 13149781
L1I-prefetch_hit : 9644571
L1I-prefetch_miss : 3505210
L1I-writeback_access : 0
L1I-writeback_hit : 0
L1I-writeback_miss : 0
L1I-prefetch_requested : 15417401
L1I-prefetch_issued : 14311581
L1I-prefetch_useful : 1698177
L1I-prefetch_useless : 1807037
L1I-Avg_miss_latency : 14.4704

L2C TOTAL     ACCESS:    6241458  HIT:    6204009  MISS:      37449
L2C LOAD      ACCESS:     530237  HIT:     516386  MISS:      13851
L2C RFO       ACCESS:      42543  HIT:      39774  MISS:       2769
L2C PREFETCH  ACCESS:    5594475  HIT:    5573780  MISS:      20695
L2C WRITEBACK ACCESS:      74203  HIT:      74069  MISS:        134
L2C PREFETCH  REQUESTED:    4468368  ISSUED:    4468153  USEFUL:       2293  USELESS:      18727
L2C AVERAGE MISS LATENCY: 124.322 cycles
L2C

SHEET
L2C-total_access : 6241458
L2C-total_hit : 6204009
L2C-total_miss : 37449
L2C-load_access : 530237
L2C-load_hit : 516386
L2C-load_miss : 13851
L2C-rfo_access : 42543
L2C-rfo_hit : 39774
L2C-rfo_miss : 2769
L2C-prefetch_access : 5594475
L2C-prefetch_hit : 5573780
L2C-prefetch_miss : 20695
L2C-writeback_access : 74203
L2C-writeback_hit : 74069
L2C-writeback_miss : 134
L2C-prefetch_requested : 4468368
L2C-prefetch_issued : 4468153
L2C-prefetch_useful : 2293
L2C-prefetch_useless : 18727
L2C-Avg_miss_latency : 124.322

LLC TOTAL     ACCESS:     238710  HIT:     203239  MISS:      35471
LLC LOAD      ACCESS:      13851  HIT:       5260  MISS:       8591
LLC RFO       ACCESS:       2769  HIT:       1162  MISS:       1607
LLC PREFETCH  ACCESS:     204061  HIT:     179375  MISS:      24686
LLC WRITEBACK ACCESS:      18029  HIT:      17442  MISS:        587
LLC PREFETCH  REQUESTED:          0  ISSUED:          0  USEFUL:       2468  USELESS:      21722
LLC AVERAGE MISS LATENCY: 185.228 cycles
LLC

SHEET
LLC-total_access : 238710
LLC-total_hit : 203239
LLC-total_miss : 35471
LLC-load_access : 13851
LLC-load_hit : 5260
LLC-load_miss : 8591
LLC-rfo_access : 2769
LLC-rfo_hit : 1162
LLC-rfo_miss : 1607
LLC-prefetch_access : 204061
LLC-prefetch_hit : 179375
LLC-prefetch_miss : 24686
LLC-writeback_access : 18029
LLC-writeback_hit : 17442
LLC-writeback_miss : 587
LLC-prefetch_requested : 0
LLC-prefetch_issued : 0
LLC-prefetch_useful : 2468
LLC-prefetch_useless : 21722
LLC-Avg_miss_latency : 185.228

Major fault: 0 Minor fault: 2776



Printing Logs
statHeadFound: 1190076
statHeadMissing: 665637
statStreamBufferHit: 10953466
statPrefetchEntryFound: 6629275
statCompactorMatch: 11386581
statStreamTrackerLookup: 12809179
statRecord: 1422598
statGetPointer: 1855713
statEnqueuePrefetch: 27095006
statPrefetchQueueIsFull: 493061
StreamBufferHitRate: 0.855126
Regions' size: 3202
next_region_correct: 767336
next_region_wrong: 652042
next_region_correct_prediction: 0.540614
statStreamBufferLookups: 922260888
statL1iLookups: 216760048
statCompactorLookups: 461130444
morteza: start

SHEET
mana_table_access_counter : 8544916
hobp_table_access_counter : 20235538
sab_access_counter : 17582741
srq_access_counter : 13014093

morteza: end
CPU 0 L1D next line prefetcher final stats

DRAM Statistics
 CHANNEL 0
 RQ ROW_BUFFER_HIT:       2773  ROW_BUFFER_MISS:      32111
 DBUS_CONGESTED:      17688
 WQ ROW_BUFFER_HIT:        748  ROW_BUFFER_MISS:      13746  FULL:          0

 AVG_CONGESTED_CYCLE: 4

CPU 0 Branch Prediction Accuracy: 93.9974% MPKI: 10.2447 Average ROB Occupancy at Mispredict: 34.7409

Branch types
NOT_BRANCH: 41466059 82.9321%
BRANCH_DIRECT_JUMP: 464313 0.928626%
BRANCH_INDIRECT: 32 6.4e-05%
BRANCH_CONDITIONAL: 7069454 14.1389%
BRANCH_DIRECT_CALL: 499587 0.999174%
BRANCH_INDIRECT_CALL: 342 0.000684%
BRANCH_RETURN: 499906 0.999812%
BRANCH_OTHER: 0 0%

