Initialize SIGNATURE TABLE
ST_SET: 1
ST_WAY: 256
ST_TAG_BIT: 16
ST_TAG_MASK: ffff

Initialize PATTERN TABLE
PT_SET: 512
PT_WAY: 4
SIG_DELTA_BIT: 7
C_SIG_BIT: 4
C_DELTA_BIT: 4

Initialize PREFETCH FILTER
FILTER_SET: 1024
MANA initialize 
tds: 2 tdm: 2
size MANA SINGLE: 15.5 KB
size MANA NULTIPLE: 0 KB
size HOBPT: 0.703125 KB
size SRQ: 0.14502 KB
size SABs: 0.290039 KB
size prefetch queue: 0.453125 KB
total: 17.0913 KB

*** ChampSim Multicore Out-of-Order Simulator ***

Warmup Instructions: 50000000
Simulation Instructions: 50000000
Number of CPUs: 1
LLC sets: 2048
LLC ways: 16
Off-chip DRAM Size: 4096 MB Channels: 1 Width: 64-bit Data Rate: 3200 MT/s

CPU 0 runs /home/mbaradaran/ChampSim/dpc3_traces/spec_x264_001.champsimtrace.xz
CPU 0 L1D next line prefetcher
Heartbeat CPU 0 instructions: 10000002 cycles: 3060295 heartbeat IPC: 3.26766 cumulative IPC: 3.26766 (Simulation time: 0 hr 1 min 2 sec) 
Heartbeat CPU 0 instructions: 20000002 cycles: 6110704 heartbeat IPC: 3.27825 cumulative IPC: 3.27295 (Simulation time: 0 hr 1 min 56 sec) 
Heartbeat CPU 0 instructions: 30000002 cycles: 9146737 heartbeat IPC: 3.29377 cumulative IPC: 3.27986 (Simulation time: 0 hr 2 min 49 sec) 
Heartbeat CPU 0 instructions: 40000000 cycles: 12191599 heartbeat IPC: 3.28422 cumulative IPC: 3.28095 (Simulation time: 0 hr 3 min 38 sec) 
Heartbeat CPU 0 instructions: 50000000 cycles: 15234913 heartbeat IPC: 3.28589 cumulative IPC: 3.28194 (Simulation time: 0 hr 4 min 26 sec) 

Warmup complete CPU 0 instructions: 50000004 cycles: 15234914 (Simulation time: 0 hr 4 min 26 sec) 

Heartbeat CPU 0 instructions: 60000002 cycles: 21230383 heartbeat IPC: 1.66793 cumulative IPC: 1.66793 (Simulation time: 0 hr 4 min 59 sec) 
Heartbeat CPU 0 instructions: 70000000 cycles: 27198764 heartbeat IPC: 1.6755 cumulative IPC: 1.6717 (Simulation time: 0 hr 5 min 31 sec) 
Heartbeat CPU 0 instructions: 80000003 cycles: 33327254 heartbeat IPC: 1.63172 cumulative IPC: 1.65816 (Simulation time: 0 hr 6 min 5 sec) 
Heartbeat CPU 0 instructions: 90000002 cycles: 39425188 heartbeat IPC: 1.6399 cumulative IPC: 1.65356 (Simulation time: 0 hr 6 min 37 sec) 
Heartbeat CPU 0 instructions: 100000002 cycles: 45381644 heartbeat IPC: 1.67885 cumulative IPC: 1.65855 (Simulation time: 0 hr 7 min 9 sec) 
Finished CPU 0 instructions: 50000002 cycles: 30146731 cumulative IPC: 1.65855 (Simulation time: 0 hr 7 min 9 sec) 

ChampSim completed all CPUs

Region of Interest Statistics

CPU 0 cumulative IPC: 1.65855 instructions: 50000002 cycles: 30146731

SHEET
IPC : 1.65855

L1D TOTAL     ACCESS:   13001887  HIT:   12840764  MISS:     161123
L1D LOAD      ACCESS:    5113166  HIT:    5058283  MISS:      54883
L1D RFO       ACCESS:    2880861  HIT:    2846553  MISS:      34308
L1D PREFETCH  ACCESS:    5007860  HIT:    4935928  MISS:      71932
L1D WRITEBACK ACCESS:          0  HIT:          0  MISS:          0
L1D PREFETCH  REQUESTED:    5129931  ISSUED:    5063749  USEFUL:      26012  USELESS:      45729
L1D AVERAGE MISS LATENCY: 39.6243 cycles
L1D

SHEET
L1D-total_access : 13001887
L1D-total_hit : 12840764
L1D-total_miss : 161123
L1D-load_access : 5113166
L1D-load_hit : 5058283
L1D-load_miss : 54883
L1D-rfo_access : 2880861
L1D-rfo_hit : 2846553
L1D-rfo_miss : 34308
L1D-prefetch_access : 5007860
L1D-prefetch_hit : 4935928
L1D-prefetch_miss : 71932
L1D-writeback_access : 0
L1D-writeback_hit : 0
L1D-writeback_miss : 0
L1D-prefetch_requested : 5129931
L1D-prefetch_issued : 5063749
L1D-prefetch_useful : 26012
L1D-prefetch_useless : 45729
L1D-Avg_miss_latency : 39.6243

L1I TOTAL     ACCESS:    9236075  HIT:    8764228  MISS:     471847
L1I LOAD      ACCESS:    8043448  HIT:    7993404  MISS:      50044
L1I RFO       ACCESS:          0  HIT:          0  MISS:          0
L1I PREFETCH  ACCESS:    1192627  HIT:     770824  MISS:     421803
L1I WRITEBACK ACCESS:          0  HIT:          0  MISS:          0
L1I PREFETCH  REQUESTED:    1324527  ISSUED:    1249681  USEFUL:     302508  USELESS:     119309
L1I AVERAGE MISS LATENCY: 14.8264 cycles
L1I

SHEET
L1I-total_access : 9236075
L1I-total_hit : 8764228
L1I-total_miss : 471847
L1I-load_access : 8043448
L1I-load_hit : 7993404
L1I-load_miss : 50044
L1I-rfo_access : 0
L1I-rfo_hit : 0
L1I-rfo_miss : 0
L1I-prefetch_access : 1192627
L1I-prefetch_hit : 770824
L1I-prefetch_miss : 421803
L1I-writeback_access : 0
L1I-writeback_hit : 0
L1I-writeback_miss : 0
L1I-prefetch_requested : 1324527
L1I-prefetch_issued : 1249681
L1I-prefetch_useful : 302508
L1I-prefetch_useless : 119309
L1I-Avg_miss_latency : 14.8264

L2C TOTAL     ACCESS:     921313  HIT:     882648  MISS:      38665
L2C LOAD      ACCESS:      97400  HIT:      92050  MISS:       5350
L2C RFO       ACCESS:      34135  HIT:      22066  MISS:      12069
L2C PREFETCH  ACCESS:     746635  HIT:     725473  MISS:      21162
L2C WRITEBACK ACCESS:      43143  HIT:      43059  MISS:         84
L2C PREFETCH  REQUESTED:     808723  ISSUED:     806641  USEFUL:       8935  USELESS:      12412
L2C AVERAGE MISS LATENCY: 103.344 cycles
L2C

SHEET
L2C-total_access : 921313
L2C-total_hit : 882648
L2C-total_miss : 38665
L2C-load_access : 97400
L2C-load_hit : 92050
L2C-load_miss : 5350
L2C-rfo_access : 34135
L2C-rfo_hit : 22066
L2C-rfo_miss : 12069
L2C-prefetch_access : 746635
L2C-prefetch_hit : 725473
L2C-prefetch_miss : 21162
L2C-writeback_access : 43143
L2C-writeback_hit : 43059
L2C-writeback_miss : 84
L2C-prefetch_requested : 808723
L2C-prefetch_issued : 806641
L2C-prefetch_useful : 8935
L2C-prefetch_useless : 12412
L2C-Avg_miss_latency : 103.344

LLC TOTAL     ACCESS:     151448  HIT:     122332  MISS:      29116
LLC LOAD      ACCESS:       5349  HIT:       3233  MISS:       2116
LLC RFO       ACCESS:      12069  HIT:        475  MISS:      11594
LLC PREFETCH  ACCESS:     120405  HIT:     105076  MISS:      15329
LLC WRITEBACK ACCESS:      13625  HIT:      13548  MISS:         77
LLC PREFETCH  REQUESTED:          0  ISSUED:          0  USEFUL:       1737  USELESS:      13944
LLC AVERAGE MISS LATENCY: 165.988 cycles
LLC

SHEET
LLC-total_access : 151448
LLC-total_hit : 122332
LLC-total_miss : 29116
LLC-load_access : 5349
LLC-load_hit : 3233
LLC-load_miss : 2116
LLC-rfo_access : 12069
LLC-rfo_hit : 475
LLC-rfo_miss : 11594
LLC-prefetch_access : 120405
LLC-prefetch_hit : 105076
LLC-prefetch_miss : 15329
LLC-writeback_access : 13625
LLC-writeback_hit : 13548
LLC-writeback_miss : 77
LLC-prefetch_requested : 0
LLC-prefetch_issued : 0
LLC-prefetch_useful : 1737
LLC-prefetch_useless : 13944
LLC-Avg_miss_latency : 165.988

Major fault: 0 Minor fault: 1284



Printing Logs
statHeadFound: 58825
statHeadMissing: 204497
statStreamBufferHit: 8274760
statPrefetchEntryFound: 563947
statCompactorMatch: 8334763
statStreamTrackerLookup: 8538082
statRecord: 203319
statGetPointer: 263322
statEnqueuePrefetch: 2357249
statPrefetchQueueIsFull: 739
StreamBufferHitRate: 0.969159
Regions' size: 582
next_region_correct: 155154
next_region_wrong: 47565
next_region_correct_prediction: 0.765365
statStreamBufferLookups: 614741904
statL1iLookups: 18857992
statCompactorLookups: 307370952
morteza: start

SHEET
mana_table_access_counter : 767987
hobp_table_access_counter : 2431190
sab_access_counter : 8838707
srq_access_counter : 6982068

morteza: end
CPU 0 L1D next line prefetcher final stats

DRAM Statistics
 CHANNEL 0
 RQ ROW_BUFFER_HIT:       9054  ROW_BUFFER_MISS:      19985
 DBUS_CONGESTED:      12459
 WQ ROW_BUFFER_HIT:       2891  ROW_BUFFER_MISS:       9913  FULL:          0

 AVG_CONGESTED_CYCLE: 6

CPU 0 Branch Prediction Accuracy: 97.1633% MPKI: 1.73704 Average ROB Occupancy at Mispredict: 39.0642

Branch types
NOT_BRANCH: 46937921 93.8758%
BRANCH_DIRECT_JUMP: 170816 0.341632%
BRANCH_INDIRECT: 0 0%
BRANCH_CONDITIONAL: 2532774 5.06555%
BRANCH_DIRECT_CALL: 114227 0.228454%
BRANCH_INDIRECT_CALL: 64863 0.129726%
BRANCH_RETURN: 179089 0.358178%
BRANCH_OTHER: 0 0%

