Initialize SIGNATURE TABLE
ST_SET: 1
ST_WAY: 256
ST_TAG_BIT: 16
ST_TAG_MASK: ffff

Initialize PATTERN TABLE
PT_SET: 512
PT_WAY: 4
SIG_DELTA_BIT: 7
C_SIG_BIT: 4
C_DELTA_BIT: 4

Initialize PREFETCH FILTER
FILTER_SET: 1024
MANA initialize 
tds: 2 tdm: 2
size MANA SINGLE: 15.5 KB
size MANA NULTIPLE: 0 KB
size HOBPT: 0.703125 KB
size SRQ: 0.14502 KB
size SABs: 0.290039 KB
size prefetch queue: 0.453125 KB
total: 17.0913 KB

*** ChampSim Multicore Out-of-Order Simulator ***

Warmup Instructions: 50000000
Simulation Instructions: 50000000
Number of CPUs: 1
LLC sets: 2048
LLC ways: 16
Off-chip DRAM Size: 4096 MB Channels: 1 Width: 64-bit Data Rate: 3200 MT/s

CPU 0 runs /home/mbaradaran/ChampSim/dpc3_traces/spec_perlbench_001.champsimtrace.xz
CPU 0 L1D next line prefetcher
Heartbeat CPU 0 instructions: 10000000 cycles: 3278252 heartbeat IPC: 3.05041 cumulative IPC: 3.05041 (Simulation time: 0 hr 1 min 37 sec) 
Heartbeat CPU 0 instructions: 20000000 cycles: 6546566 heartbeat IPC: 3.05968 cumulative IPC: 3.05504 (Simulation time: 0 hr 2 min 58 sec) 
Heartbeat CPU 0 instructions: 30000002 cycles: 9868408 heartbeat IPC: 3.01038 cumulative IPC: 3.04 (Simulation time: 0 hr 4 min 15 sec) 
Heartbeat CPU 0 instructions: 40000002 cycles: 13125387 heartbeat IPC: 3.07033 cumulative IPC: 3.04753 (Simulation time: 0 hr 5 min 25 sec) 
Heartbeat CPU 0 instructions: 50000001 cycles: 16399887 heartbeat IPC: 3.0539 cumulative IPC: 3.0488 (Simulation time: 0 hr 6 min 31 sec) 

Warmup complete CPU 0 instructions: 50000001 cycles: 16399887 (Simulation time: 0 hr 6 min 31 sec) 

Heartbeat CPU 0 instructions: 60000001 cycles: 24897086 heartbeat IPC: 1.17686 cumulative IPC: 1.17686 (Simulation time: 0 hr 7 min 36 sec) 
Heartbeat CPU 0 instructions: 70000000 cycles: 33354567 heartbeat IPC: 1.18239 cumulative IPC: 1.17962 (Simulation time: 0 hr 8 min 44 sec) 
Heartbeat CPU 0 instructions: 80000000 cycles: 41925915 heartbeat IPC: 1.16668 cumulative IPC: 1.17527 (Simulation time: 0 hr 9 min 50 sec) 
Heartbeat CPU 0 instructions: 90000000 cycles: 47712955 heartbeat IPC: 1.728 cumulative IPC: 1.27742 (Simulation time: 0 hr 10 min 42 sec) 
Heartbeat CPU 0 instructions: 100000002 cycles: 53652331 heartbeat IPC: 1.68368 cumulative IPC: 1.34219 (Simulation time: 0 hr 11 min 34 sec) 
Finished CPU 0 instructions: 50000001 cycles: 37252444 cumulative IPC: 1.34219 (Simulation time: 0 hr 11 min 34 sec) 

ChampSim completed all CPUs

Region of Interest Statistics

CPU 0 cumulative IPC: 1.34219 instructions: 50000001 cycles: 37252444

SHEET
IPC : 1.34219

L1D TOTAL     ACCESS:   20896473  HIT:   20481351  MISS:     415122
L1D LOAD      ACCESS:    7274944  HIT:    7061417  MISS:     213527
L1D RFO       ACCESS:    6545458  HIT:    6526953  MISS:      18505
L1D PREFETCH  ACCESS:    7076071  HIT:    6892981  MISS:     183090
L1D WRITEBACK ACCESS:          0  HIT:          0  MISS:          0
L1D PREFETCH  REQUESTED:    7291537  ISSUED:    7177138  USEFUL:      55410  USELESS:     127675
L1D AVERAGE MISS LATENCY: 58.3703 cycles
L1D

SHEET
L1D-total_access : 20896473
L1D-total_hit : 20481351
L1D-total_miss : 415122
L1D-load_access : 7274944
L1D-load_hit : 7061417
L1D-load_miss : 213527
L1D-rfo_access : 6545458
L1D-rfo_hit : 6526953
L1D-rfo_miss : 18505
L1D-prefetch_access : 7076071
L1D-prefetch_hit : 6892981
L1D-prefetch_miss : 183090
L1D-writeback_access : 0
L1D-writeback_hit : 0
L1D-writeback_miss : 0
L1D-prefetch_requested : 7291537
L1D-prefetch_issued : 7177138
L1D-prefetch_useful : 55410
L1D-prefetch_useless : 127675
L1D-Avg_miss_latency : 58.3703

L1I TOTAL     ACCESS:   17951680  HIT:   16127790  MISS:    1823890
L1I LOAD      ACCESS:    9179776  HIT:    8893783  MISS:     285993
L1I RFO       ACCESS:          0  HIT:          0  MISS:          0
L1I PREFETCH  ACCESS:    8771904  HIT:    7234007  MISS:    1537897
L1I WRITEBACK ACCESS:          0  HIT:          0  MISS:          0
L1I PREFETCH  REQUESTED:    9417585  ISSUED:    9238678  USEFUL:     795078  USELESS:     742793
L1I AVERAGE MISS LATENCY: 15.3369 cycles
L1I

SHEET
L1I-total_access : 17951680
L1I-total_hit : 16127790
L1I-total_miss : 1823890
L1I-load_access : 9179776
L1I-load_hit : 8893783
L1I-load_miss : 285993
L1I-rfo_access : 0
L1I-rfo_hit : 0
L1I-rfo_miss : 0
L1I-prefetch_access : 8771904
L1I-prefetch_hit : 7234007
L1I-prefetch_miss : 1537897
L1I-writeback_access : 0
L1I-writeback_hit : 0
L1I-writeback_miss : 0
L1I-prefetch_requested : 9417585
L1I-prefetch_issued : 9238678
L1I-prefetch_useful : 795078
L1I-prefetch_useless : 742793
L1I-Avg_miss_latency : 15.3369

L2C TOTAL     ACCESS:    3173560  HIT:    3007983  MISS:     165577
L2C LOAD      ACCESS:     436402  HIT:     355814  MISS:      80588
L2C RFO       ACCESS:      18260  HIT:      12862  MISS:       5398
L2C PREFETCH  ACCESS:    2639933  HIT:    2560677  MISS:      79256
L2C WRITEBACK ACCESS:      78965  HIT:      78630  MISS:        335
L2C PREFETCH  REQUESTED:    2128184  ISSUED:    2128034  USEFUL:       7338  USELESS:      71854
L2C AVERAGE MISS LATENCY: 121.252 cycles
L2C

SHEET
L2C-total_access : 3173560
L2C-total_hit : 3007983
L2C-total_miss : 165577
L2C-load_access : 436402
L2C-load_hit : 355814
L2C-load_miss : 80588
L2C-rfo_access : 18260
L2C-rfo_hit : 12862
L2C-rfo_miss : 5398
L2C-prefetch_access : 2639933
L2C-prefetch_hit : 2560677
L2C-prefetch_miss : 79256
L2C-writeback_access : 78965
L2C-writeback_hit : 78630
L2C-writeback_miss : 335
L2C-prefetch_requested : 2128184
L2C-prefetch_issued : 2128034
L2C-prefetch_useful : 7338
L2C-prefetch_useless : 71854
L2C-Avg_miss_latency : 121.252

LLC TOTAL     ACCESS:     522696  HIT:     376791  MISS:     145905
LLC LOAD      ACCESS:      80587  HIT:      31515  MISS:      49072
LLC RFO       ACCESS:       5398  HIT:       2328  MISS:       3070
LLC PREFETCH  ACCESS:     411378  HIT:     318138  MISS:      93240
LLC WRITEBACK ACCESS:      25333  HIT:      24810  MISS:        523
LLC PREFETCH  REQUESTED:          0  ISSUED:          0  USEFUL:      14388  USELESS:      78743
LLC AVERAGE MISS LATENCY: 160.294 cycles
LLC

SHEET
LLC-total_access : 522696
LLC-total_hit : 376791
LLC-total_miss : 145905
LLC-load_access : 80587
LLC-load_hit : 31515
LLC-load_miss : 49072
LLC-rfo_access : 5398
LLC-rfo_hit : 2328
LLC-rfo_miss : 3070
LLC-prefetch_access : 411378
LLC-prefetch_hit : 318138
LLC-prefetch_miss : 93240
LLC-writeback_access : 25333
LLC-writeback_hit : 24810
LLC-writeback_miss : 523
LLC-prefetch_requested : 0
LLC-prefetch_issued : 0
LLC-prefetch_useful : 14388
LLC-prefetch_useless : 78743
LLC-Avg_miss_latency : 160.294

Major fault: 0 Minor fault: 6364



Printing Logs
statHeadFound: 679064
statHeadMissing: 267745
statStreamBufferHit: 13323784
statPrefetchEntryFound: 6039570
statCompactorMatch: 12963457
statStreamTrackerLookup: 14270593
statRecord: 1307136
statGetPointer: 946809
statEnqueuePrefetch: 18660657
statPrefetchQueueIsFull: 49079
StreamBufferHitRate: 0.933653
Regions' size: 2413
next_region_correct: 911142
next_region_wrong: 393563
next_region_correct_prediction: 0.698351
statStreamBufferLookups: 1027482696
statL1iLookups: 149285256
statCompactorLookups: 513741348
morteza: start

SHEET
mana_table_access_counter : 7395767
hobp_table_access_counter : 15104375
sab_access_counter : 19363354
srq_access_counter : 12596129

morteza: end
CPU 0 L1D next line prefetcher final stats

DRAM Statistics
 CHANNEL 0
 RQ ROW_BUFFER_HIT:      33539  ROW_BUFFER_MISS:     111843
 DBUS_CONGESTED:      58352
 WQ ROW_BUFFER_HIT:       4099  ROW_BUFFER_MISS:      13397  FULL:          0

 AVG_CONGESTED_CYCLE: 4

CPU 0 Branch Prediction Accuracy: 98.7418% MPKI: 2.47758 Average ROB Occupancy at Mispredict: 70.8937

Branch types
NOT_BRANCH: 40154100 80.3082%
BRANCH_DIRECT_JUMP: 817094 1.63419%
BRANCH_INDIRECT: 303787 0.607574%
BRANCH_CONDITIONAL: 7492103 14.9842%
BRANCH_DIRECT_CALL: 471777 0.943554%
BRANCH_INDIRECT_CALL: 144546 0.289092%
BRANCH_RETURN: 616324 1.23265%
BRANCH_OTHER: 0 0%

