Initialize SIGNATURE TABLE
ST_SET: 1
ST_WAY: 256
ST_TAG_BIT: 16
ST_TAG_MASK: ffff

Initialize PATTERN TABLE
PT_SET: 512
PT_WAY: 4
SIG_DELTA_BIT: 7
C_SIG_BIT: 4
C_DELTA_BIT: 4

Initialize PREFETCH FILTER
FILTER_SET: 1024
MANA initialize 
tds: 2 tdm: 2
size MANA SINGLE: 15.5 KB
size MANA NULTIPLE: 0 KB
size HOBPT: 0.703125 KB
size SRQ: 0.14502 KB
size SABs: 0.290039 KB
size prefetch queue: 0.453125 KB
total: 17.0913 KB

*** ChampSim Multicore Out-of-Order Simulator ***

Warmup Instructions: 50000000
Simulation Instructions: 50000000
Number of CPUs: 1
LLC sets: 2048
LLC ways: 16
Off-chip DRAM Size: 4096 MB Channels: 1 Width: 64-bit Data Rate: 3200 MT/s

CPU 0 runs /home/mbaradaran/ChampSim/dpc3_traces/spec_gobmk_001.champsimtrace.xz
CPU 0 L1D next line prefetcher
Heartbeat CPU 0 instructions: 10000003 cycles: 3510145 heartbeat IPC: 2.84889 cumulative IPC: 2.84889 (Simulation time: 0 hr 1 min 34 sec) 
Heartbeat CPU 0 instructions: 20000002 cycles: 6991082 heartbeat IPC: 2.87279 cumulative IPC: 2.86079 (Simulation time: 0 hr 2 min 50 sec) 
Heartbeat CPU 0 instructions: 30000002 cycles: 10511100 heartbeat IPC: 2.84089 cumulative IPC: 2.85413 (Simulation time: 0 hr 3 min 56 sec) 
Heartbeat CPU 0 instructions: 40000001 cycles: 14031278 heartbeat IPC: 2.84077 cumulative IPC: 2.85077 (Simulation time: 0 hr 4 min 59 sec) 
Heartbeat CPU 0 instructions: 50000001 cycles: 17571942 heartbeat IPC: 2.82433 cumulative IPC: 2.84545 (Simulation time: 0 hr 6 min 5 sec) 

Warmup complete CPU 0 instructions: 50000001 cycles: 17571942 (Simulation time: 0 hr 6 min 5 sec) 

Heartbeat CPU 0 instructions: 60000000 cycles: 26931657 heartbeat IPC: 1.06841 cumulative IPC: 1.06841 (Simulation time: 0 hr 7 min 0 sec) 
Heartbeat CPU 0 instructions: 70000002 cycles: 36060162 heartbeat IPC: 1.09547 cumulative IPC: 1.08177 (Simulation time: 0 hr 7 min 54 sec) 
Heartbeat CPU 0 instructions: 80000003 cycles: 45413586 heartbeat IPC: 1.06913 cumulative IPC: 1.07752 (Simulation time: 0 hr 8 min 47 sec) 
Heartbeat CPU 0 instructions: 90000001 cycles: 54334409 heartbeat IPC: 1.12097 cumulative IPC: 1.08807 (Simulation time: 0 hr 9 min 39 sec) 
Heartbeat CPU 0 instructions: 100000003 cycles: 63742151 heartbeat IPC: 1.06295 cumulative IPC: 1.08295 (Simulation time: 0 hr 10 min 33 sec) 
Finished CPU 0 instructions: 50000002 cycles: 46170209 cumulative IPC: 1.08295 (Simulation time: 0 hr 10 min 33 sec) 

ChampSim completed all CPUs

Region of Interest Statistics

CPU 0 cumulative IPC: 1.08295 instructions: 50000002 cycles: 46170209

SHEET
IPC : 1.08295

L1D TOTAL     ACCESS:   18190791  HIT:   17811187  MISS:     379604
L1D LOAD      ACCESS:    7310998  HIT:    7176280  MISS:     134718
L1D RFO       ACCESS:    3707431  HIT:    3602971  MISS:     104460
L1D PREFETCH  ACCESS:    7172362  HIT:    7031936  MISS:     140426
L1D WRITEBACK ACCESS:          0  HIT:          0  MISS:          0
L1D PREFETCH  REQUESTED:    7316225  ISSUED:    7233098  USEFUL:      45699  USELESS:      94733
L1D AVERAGE MISS LATENCY: 33.8032 cycles
L1D

SHEET
L1D-total_access : 18190791
L1D-total_hit : 17811187
L1D-total_miss : 379604
L1D-load_access : 7310998
L1D-load_hit : 7176280
L1D-load_miss : 134718
L1D-rfo_access : 3707431
L1D-rfo_hit : 3602971
L1D-rfo_miss : 104460
L1D-prefetch_access : 7172362
L1D-prefetch_hit : 7031936
L1D-prefetch_miss : 140426
L1D-writeback_access : 0
L1D-writeback_hit : 0
L1D-writeback_miss : 0
L1D-prefetch_requested : 7316225
L1D-prefetch_issued : 7233098
L1D-prefetch_useful : 45699
L1D-prefetch_useless : 94733
L1D-Avg_miss_latency : 33.8032

L1I TOTAL     ACCESS:   18389314  HIT:   15339006  MISS:    3050308
L1I LOAD      ACCESS:    9058774  HIT:    8610679  MISS:     448095
L1I RFO       ACCESS:          0  HIT:          0  MISS:          0
L1I PREFETCH  ACCESS:    9330540  HIT:    6728327  MISS:    2602213
L1I WRITEBACK ACCESS:          0  HIT:          0  MISS:          0
L1I PREFETCH  REQUESTED:   10901327  ISSUED:   10153605  USEFUL:    1220440  USELESS:    1381756
L1I AVERAGE MISS LATENCY: 14.7314 cycles
L1I

SHEET
L1I-total_access : 18389314
L1I-total_hit : 15339006
L1I-total_miss : 3050308
L1I-load_access : 9058774
L1I-load_hit : 8610679
L1I-load_miss : 448095
L1I-rfo_access : 0
L1I-rfo_hit : 0
L1I-rfo_miss : 0
L1I-prefetch_access : 9330540
L1I-prefetch_hit : 6728327
L1I-prefetch_miss : 2602213
L1I-writeback_access : 0
L1I-writeback_hit : 0
L1I-writeback_miss : 0
L1I-prefetch_requested : 10901327
L1I-prefetch_issued : 10153605
L1I-prefetch_useful : 1220440
L1I-prefetch_useless : 1381756
L1I-Avg_miss_latency : 14.7314

L2C TOTAL     ACCESS:    5175753  HIT:    5051659  MISS:     124094
L2C LOAD      ACCESS:     500873  HIT:     465430  MISS:      35443
L2C RFO       ACCESS:     104170  HIT:      69952  MISS:      34218
L2C PREFETCH  ACCESS:    4431411  HIT:    4377072  MISS:      54339
L2C WRITEBACK ACCESS:     139299  HIT:     139205  MISS:         94
L2C PREFETCH  REQUESTED:    3770313  ISSUED:    3769866  USEFUL:       5161  USELESS:      49380
L2C AVERAGE MISS LATENCY: 66.0258 cycles
L2C

SHEET
L2C-total_access : 5175753
L2C-total_hit : 5051659
L2C-total_miss : 124094
L2C-load_access : 500873
L2C-load_hit : 465430
L2C-load_miss : 35443
L2C-rfo_access : 104170
L2C-rfo_hit : 69952
L2C-rfo_miss : 34218
L2C-prefetch_access : 4431411
L2C-prefetch_hit : 4377072
L2C-prefetch_miss : 54339
L2C-writeback_access : 139299
L2C-writeback_hit : 139205
L2C-writeback_miss : 94
L2C-prefetch_requested : 3770313
L2C-prefetch_issued : 3769866
L2C-prefetch_useful : 5161
L2C-prefetch_useless : 49380
L2C-Avg_miss_latency : 66.0258

LLC TOTAL     ACCESS:     395809  HIT:     356929  MISS:      38880
LLC LOAD      ACCESS:      35440  HIT:      27195  MISS:       8245
LLC RFO       ACCESS:      34218  HIT:      26944  MISS:       7274
LLC PREFETCH  ACCESS:     281061  HIT:     258017  MISS:      23044
LLC WRITEBACK ACCESS:      45090  HIT:      44773  MISS:        317
LLC PREFETCH  REQUESTED:          0  ISSUED:          0  USEFUL:       1450  USELESS:      19645
LLC AVERAGE MISS LATENCY: 179.017 cycles
LLC

SHEET
LLC-total_access : 395809
LLC-total_hit : 356929
LLC-total_miss : 38880
LLC-load_access : 35440
LLC-load_hit : 27195
LLC-load_miss : 8245
LLC-rfo_access : 34218
LLC-rfo_hit : 26944
LLC-rfo_miss : 7274
LLC-prefetch_access : 281061
LLC-prefetch_hit : 258017
LLC-prefetch_miss : 23044
LLC-writeback_access : 45090
LLC-writeback_hit : 44773
LLC-writeback_miss : 317
LLC-prefetch_requested : 0
LLC-prefetch_issued : 0
LLC-prefetch_useful : 1450
LLC-prefetch_useless : 19645
LLC-Avg_miss_latency : 179.017

Major fault: 0 Minor fault: 4156



Printing Logs
statHeadFound: 804063
statHeadMissing: 356689
statStreamBufferHit: 11645364
statPrefetchEntryFound: 4821598
statCompactorMatch: 11776782
statStreamTrackerLookup: 12806116
statRecord: 1029334
statGetPointer: 1160752
statEnqueuePrefetch: 18970340
statPrefetchQueueIsFull: 226345
StreamBufferHitRate: 0.90936
Regions' size: 3116
next_region_correct: 542140
next_region_wrong: 484060
next_region_correct_prediction: 0.528299
statStreamBufferLookups: 922040352
statL1iLookups: 151762720
statCompactorLookups: 461020176
morteza: start

SHEET
mana_table_access_counter : 6077259
hobp_table_access_counter : 13808246
sab_access_counter : 16466962
srq_access_counter : 12485771

morteza: end
CPU 0 L1D next line prefetcher final stats

DRAM Statistics
 CHANNEL 0
 RQ ROW_BUFFER_HIT:       5093  ROW_BUFFER_MISS:      33470
 DBUS_CONGESTED:      22266
 WQ ROW_BUFFER_HIT:       1595  ROW_BUFFER_MISS:      15518  FULL:          0

 AVG_CONGESTED_CYCLE: 4

CPU 0 Branch Prediction Accuracy: 94.7729% MPKI: 9.72684 Average ROB Occupancy at Mispredict: 49.364

Branch types
NOT_BRANCH: 40695363 81.3907%
BRANCH_DIRECT_JUMP: 422107 0.844214%
BRANCH_INDIRECT: 65 0.00013%
BRANCH_CONDITIONAL: 8105003 16.21%
BRANCH_DIRECT_CALL: 374912 0.749824%
BRANCH_INDIRECT_CALL: 13657 0.027314%
BRANCH_RETURN: 388556 0.777112%
BRANCH_OTHER: 0 0%

