Initialize SIGNATURE TABLE
ST_SET: 1
ST_WAY: 256
ST_TAG_BIT: 16
ST_TAG_MASK: ffff

Initialize PATTERN TABLE
PT_SET: 512
PT_WAY: 4
SIG_DELTA_BIT: 7
C_SIG_BIT: 4
C_DELTA_BIT: 4

Initialize PREFETCH FILTER
FILTER_SET: 1024

*** ChampSim Multicore Out-of-Order Simulator ***

Warmup Instructions: 50000000
Simulation Instructions: 50000000
Number of CPUs: 1
LLC sets: 2048
LLC ways: 16
Off-chip DRAM Size: 4096 MB Channels: 1 Width: 64-bit Data Rate: 3200 MT/s

CPU 0 runs /home/mbaradaran/ChampSim/dpc3_traces/client_006.champsimtrace.xz
CPU 0 L1D next line prefetcher
Heartbeat CPU 0 instructions: 10000003 cycles: 4267938 heartbeat IPC: 2.34305 cumulative IPC: 2.34305 (Simulation time: 0 hr 1 min 35 sec) 
Heartbeat CPU 0 instructions: 20000000 cycles: 8309124 heartbeat IPC: 2.47452 cumulative IPC: 2.40699 (Simulation time: 0 hr 3 min 24 sec) 
Heartbeat CPU 0 instructions: 30000003 cycles: 11376755 heartbeat IPC: 3.25985 cumulative IPC: 2.63696 (Simulation time: 0 hr 4 min 48 sec) 
Heartbeat CPU 0 instructions: 40000000 cycles: 14725109 heartbeat IPC: 2.98654 cumulative IPC: 2.71645 (Simulation time: 0 hr 6 min 28 sec) 
Heartbeat CPU 0 instructions: 50000003 cycles: 18830823 heartbeat IPC: 2.43563 cumulative IPC: 2.65522 (Simulation time: 0 hr 8 min 8 sec) 

Warmup complete CPU 0 instructions: 50000003 cycles: 18830823 (Simulation time: 0 hr 8 min 8 sec) 

Heartbeat CPU 0 instructions: 60000001 cycles: 29290585 heartbeat IPC: 0.956044 cumulative IPC: 0.956044 (Simulation time: 0 hr 9 min 21 sec) 
Heartbeat CPU 0 instructions: 70000003 cycles: 39363308 heartbeat IPC: 0.99278 cumulative IPC: 0.974066 (Simulation time: 0 hr 10 min 54 sec) 
Heartbeat CPU 0 instructions: 80000002 cycles: 50508310 heartbeat IPC: 0.897263 cumulative IPC: 0.947045 (Simulation time: 0 hr 12 min 7 sec) 
Heartbeat CPU 0 instructions: 90000003 cycles: 58517415 heartbeat IPC: 1.24858 cumulative IPC: 1.0079 (Simulation time: 0 hr 13 min 28 sec) 
Heartbeat CPU 0 instructions: 100000001 cycles: 69614454 heartbeat IPC: 0.901141 cumulative IPC: 0.984569 (Simulation time: 0 hr 14 min 44 sec) 
Finished CPU 0 instructions: 50000002 cycles: 50783632 cumulative IPC: 0.984569 (Simulation time: 0 hr 14 min 44 sec) 

ChampSim completed all CPUs

Region of Interest Statistics

CPU 0 cumulative IPC: 0.984569 instructions: 50000002 cycles: 50783632

SHEET
IPC : 0.984569

L1D TOTAL     ACCESS:   17479579  HIT:   16752916  MISS:     726663
L1D LOAD      ACCESS:    6781043  HIT:    6381577  MISS:     399466
L1D RFO       ACCESS:    4377207  HIT:    4334682  MISS:      42525
L1D PREFETCH  ACCESS:    6321329  HIT:    6036657  MISS:     284672
L1D WRITEBACK ACCESS:          0  HIT:          0  MISS:          0
L1D PREFETCH  REQUESTED:    6819859  ISSUED:    6639234  USEFUL:     123623  USELESS:     160923
L1D AVERAGE MISS LATENCY: 79.958 cycles
L1D

SHEET
L1D-total_access : 17479579
L1D-total_hit : 16752916
L1D-total_miss : 726663
L1D-load_access : 6781043
L1D-load_hit : 6381577
L1D-load_miss : 399466
L1D-rfo_access : 4377207
L1D-rfo_hit : 4334682
L1D-rfo_miss : 42525
L1D-prefetch_access : 6321329
L1D-prefetch_hit : 6036657
L1D-prefetch_miss : 284672
L1D-writeback_access : 0
L1D-writeback_hit : 0
L1D-writeback_miss : 0
L1D-prefetch_requested : 6819859
L1D-prefetch_issued : 6639234
L1D-prefetch_useful : 123623
L1D-prefetch_useless : 160923
L1D-Avg_miss_latency : 79.958

L1I TOTAL     ACCESS:    8435207  HIT:    7252480  MISS:    1182727
L1I LOAD      ACCESS:    8435207  HIT:    7252480  MISS:    1182727
L1I RFO       ACCESS:          0  HIT:          0  MISS:          0
L1I PREFETCH  ACCESS:          0  HIT:          0  MISS:          0
L1I WRITEBACK ACCESS:          0  HIT:          0  MISS:          0
L1I PREFETCH  REQUESTED:          0  ISSUED:          0  USEFUL:          0  USELESS:          0
L1I AVERAGE MISS LATENCY: 18.0016 cycles
L1I

SHEET
L1I-total_access : 8435207
L1I-total_hit : 7252480
L1I-total_miss : 1182727
L1I-load_access : 8435207
L1I-load_hit : 7252480
L1I-load_miss : 1182727
L1I-rfo_access : 0
L1I-rfo_hit : 0
L1I-rfo_miss : 0
L1I-prefetch_access : 0
L1I-prefetch_hit : 0
L1I-prefetch_miss : 0
L1I-writeback_access : 0
L1I-writeback_hit : 0
L1I-writeback_miss : 0
L1I-prefetch_requested : 0
L1I-prefetch_issued : 0
L1I-prefetch_useful : 0
L1I-prefetch_useless : 0
L1I-Avg_miss_latency : 18.0016

L2C TOTAL     ACCESS:    3548746  HIT:    3005975  MISS:     542771
L2C LOAD      ACCESS:    1518701  HIT:    1243847  MISS:     274854
L2C RFO       ACCESS:      42268  HIT:      12428  MISS:      29840
L2C PREFETCH  ACCESS:    1811821  HIT:    1574421  MISS:     237400
L2C WRITEBACK ACCESS:     175956  HIT:     175279  MISS:        677
L2C PREFETCH  REQUESTED:    3231302  ISSUED:    3209892  USEFUL:       9496  USELESS:     227418
L2C AVERAGE MISS LATENCY: 107.913 cycles
L2C

SHEET
L2C-total_access : 3548746
L2C-total_hit : 3005975
L2C-total_miss : 542771
L2C-load_access : 1518701
L2C-load_hit : 1243847
L2C-load_miss : 274854
L2C-rfo_access : 42268
L2C-rfo_hit : 12428
L2C-rfo_miss : 29840
L2C-prefetch_access : 1811821
L2C-prefetch_hit : 1574421
L2C-prefetch_miss : 237400
L2C-writeback_access : 175956
L2C-writeback_hit : 175279
L2C-writeback_miss : 677
L2C-prefetch_requested : 3231302
L2C-prefetch_issued : 3209892
L2C-prefetch_useful : 9496
L2C-prefetch_useless : 227418
L2C-Avg_miss_latency : 107.913

LLC TOTAL     ACCESS:    1392673  HIT:    1005715  MISS:     386958
LLC LOAD      ACCESS:     264752  HIT:     162240  MISS:     102512
LLC RFO       ACCESS:      29839  HIT:       5032  MISS:      24807
LLC PREFETCH  ACCESS:     964170  HIT:     705143  MISS:     259027
LLC WRITEBACK ACCESS:     133912  HIT:     133300  MISS:        612
LLC PREFETCH  REQUESTED:          0  ISSUED:          0  USEFUL:      50918  USELESS:     211563
LLC AVERAGE MISS LATENCY: 185.655 cycles
LLC

SHEET
LLC-total_access : 1392673
LLC-total_hit : 1005715
LLC-total_miss : 386958
LLC-load_access : 264752
LLC-load_hit : 162240
LLC-load_miss : 102512
LLC-rfo_access : 29839
LLC-rfo_hit : 5032
LLC-rfo_miss : 24807
LLC-prefetch_access : 964170
LLC-prefetch_hit : 705143
LLC-prefetch_miss : 259027
LLC-writeback_access : 133912
LLC-writeback_hit : 133300
LLC-writeback_miss : 612
LLC-prefetch_requested : 0
LLC-prefetch_issued : 0
LLC-prefetch_useful : 50918
LLC-prefetch_useless : 211563
LLC-Avg_miss_latency : 185.655

Major fault: 0 Minor fault: 10527
CPU 0 L1D next line prefetcher final stats

DRAM Statistics
 CHANNEL 0
 RQ ROW_BUFFER_HIT:      97158  ROW_BUFFER_MISS:     289172
 DBUS_CONGESTED:     225488
 WQ ROW_BUFFER_HIT:      23375  ROW_BUFFER_MISS:      91322  FULL:          0

 AVG_CONGESTED_CYCLE: 5

CPU 0 Branch Prediction Accuracy: 98.1683% MPKI: 3.13642 Average ROB Occupancy at Mispredict: 70.0667

Branch types
NOT_BRANCH: 41438057 82.8761%
BRANCH_DIRECT_JUMP: 413829 0.827658%
BRANCH_INDIRECT: 47058 0.094116%
BRANCH_CONDITIONAL: 6843835 13.6877%
BRANCH_DIRECT_CALL: 536885 1.07377%
BRANCH_INDIRECT_CALL: 90642 0.181284%
BRANCH_RETURN: 629329 1.25866%
BRANCH_OTHER: 0 0%

