Initialize SIGNATURE TABLE
ST_SET: 1
ST_WAY: 256
ST_TAG_BIT: 16
ST_TAG_MASK: ffff

Initialize PATTERN TABLE
PT_SET: 512
PT_WAY: 4
SIG_DELTA_BIT: 7
C_SIG_BIT: 4
C_DELTA_BIT: 4

Initialize PREFETCH FILTER
FILTER_SET: 1024

*** ChampSim Multicore Out-of-Order Simulator ***

Warmup Instructions: 50000000
Simulation Instructions: 50000000
Number of CPUs: 1
LLC sets: 2048
LLC ways: 16
Off-chip DRAM Size: 4096 MB Channels: 1 Width: 64-bit Data Rate: 3200 MT/s

CPU 0 runs /home/mbaradaran/ChampSim/dpc3_traces/client_008.champsimtrace.xz
CPU 0 L1D next line prefetcher
Heartbeat CPU 0 instructions: 10000001 cycles: 3756041 heartbeat IPC: 2.66238 cumulative IPC: 2.66238 (Simulation time: 0 hr 1 min 38 sec) 
Heartbeat CPU 0 instructions: 20000001 cycles: 7533561 heartbeat IPC: 2.64724 cumulative IPC: 2.65479 (Simulation time: 0 hr 3 min 16 sec) 
Heartbeat CPU 0 instructions: 30000000 cycles: 11262495 heartbeat IPC: 2.68173 cumulative IPC: 2.66371 (Simulation time: 0 hr 5 min 5 sec) 
Heartbeat CPU 0 instructions: 40000002 cycles: 15058598 heartbeat IPC: 2.63428 cumulative IPC: 2.65629 (Simulation time: 0 hr 6 min 48 sec) 
Heartbeat CPU 0 instructions: 50000003 cycles: 18851835 heartbeat IPC: 2.63627 cumulative IPC: 2.65226 (Simulation time: 0 hr 8 min 28 sec) 

Warmup complete CPU 0 instructions: 50000003 cycles: 18851835 (Simulation time: 0 hr 8 min 28 sec) 

Heartbeat CPU 0 instructions: 60000000 cycles: 28943844 heartbeat IPC: 0.990883 cumulative IPC: 0.990883 (Simulation time: 0 hr 10 min 4 sec) 
Heartbeat CPU 0 instructions: 70000001 cycles: 38687962 heartbeat IPC: 1.02626 cumulative IPC: 1.00826 (Simulation time: 0 hr 11 min 33 sec) 
Heartbeat CPU 0 instructions: 80000001 cycles: 48341339 heartbeat IPC: 1.03591 cumulative IPC: 1.01731 (Simulation time: 0 hr 12 min 57 sec) 
Heartbeat CPU 0 instructions: 90000001 cycles: 55953452 heartbeat IPC: 1.3137 cumulative IPC: 1.07812 (Simulation time: 0 hr 14 min 17 sec) 
Heartbeat CPU 0 instructions: 100000001 cycles: 64086059 heartbeat IPC: 1.22962 cumulative IPC: 1.10536 (Simulation time: 0 hr 15 min 48 sec) 
Finished CPU 0 instructions: 50000002 cycles: 45234225 cumulative IPC: 1.10536 (Simulation time: 0 hr 15 min 48 sec) 

ChampSim completed all CPUs

Region of Interest Statistics

CPU 0 cumulative IPC: 1.10536 instructions: 50000002 cycles: 45234225

SHEET
IPC : 1.10536

L1D TOTAL     ACCESS:   21380998  HIT:   19749750  MISS:    1631248
L1D LOAD      ACCESS:    8481186  HIT:    7692404  MISS:     788782
L1D RFO       ACCESS:    4861387  HIT:    4755361  MISS:     106026
L1D PREFETCH  ACCESS:    8038425  HIT:    7301985  MISS:     736440
L1D WRITEBACK ACCESS:          0  HIT:          0  MISS:          0
L1D PREFETCH  REQUESTED:    8552226  ISSUED:    8387662  USEFUL:     214614  USELESS:     521831
L1D AVERAGE MISS LATENCY: 31.9857 cycles
L1D

SHEET
L1D-total_access : 21380998
L1D-total_hit : 19749750
L1D-total_miss : 1631248
L1D-load_access : 8481186
L1D-load_hit : 7692404
L1D-load_miss : 788782
L1D-rfo_access : 4861387
L1D-rfo_hit : 4755361
L1D-rfo_miss : 106026
L1D-prefetch_access : 8038425
L1D-prefetch_hit : 7301985
L1D-prefetch_miss : 736440
L1D-writeback_access : 0
L1D-writeback_hit : 0
L1D-writeback_miss : 0
L1D-prefetch_requested : 8552226
L1D-prefetch_issued : 8387662
L1D-prefetch_useful : 214614
L1D-prefetch_useless : 521831
L1D-Avg_miss_latency : 31.9857

L1I TOTAL     ACCESS:    9671233  HIT:    8571482  MISS:    1099751
L1I LOAD      ACCESS:    9671233  HIT:    8571482  MISS:    1099751
L1I RFO       ACCESS:          0  HIT:          0  MISS:          0
L1I PREFETCH  ACCESS:          0  HIT:          0  MISS:          0
L1I WRITEBACK ACCESS:          0  HIT:          0  MISS:          0
L1I PREFETCH  REQUESTED:          0  ISSUED:          0  USEFUL:          0  USELESS:          0
L1I AVERAGE MISS LATENCY: 16.2089 cycles
L1I

SHEET
L1I-total_access : 9671233
L1I-total_hit : 8571482
L1I-total_miss : 1099751
L1I-load_access : 9671233
L1I-load_hit : 8571482
L1I-load_miss : 1099751
L1I-rfo_access : 0
L1I-rfo_hit : 0
L1I-rfo_miss : 0
L1I-prefetch_access : 0
L1I-prefetch_hit : 0
L1I-prefetch_miss : 0
L1I-writeback_access : 0
L1I-writeback_hit : 0
L1I-writeback_miss : 0
L1I-prefetch_requested : 0
L1I-prefetch_issued : 0
L1I-prefetch_useful : 0
L1I-prefetch_useless : 0
L1I-Avg_miss_latency : 16.2089

L2C TOTAL     ACCESS:    4403788  HIT:    3963644  MISS:     440144
L2C LOAD      ACCESS:    1843046  HIT:    1653897  MISS:     189149
L2C RFO       ACCESS:     100968  HIT:      18147  MISS:      82821
L2C PREFETCH  ACCESS:    2277730  HIT:    2109958  MISS:     167772
L2C WRITEBACK ACCESS:     182044  HIT:     181642  MISS:        402
L2C PREFETCH  REQUESTED:    3149714  ISSUED:    3149415  USEFUL:      16717  USELESS:     150860
L2C AVERAGE MISS LATENCY: 73.9167 cycles
L2C

SHEET
L2C-total_access : 4403788
L2C-total_hit : 3963644
L2C-total_miss : 440144
L2C-load_access : 1843046
L2C-load_hit : 1653897
L2C-load_miss : 189149
L2C-rfo_access : 100968
L2C-rfo_hit : 18147
L2C-rfo_miss : 82821
L2C-prefetch_access : 2277730
L2C-prefetch_hit : 2109958
L2C-prefetch_miss : 167772
L2C-writeback_access : 182044
L2C-writeback_hit : 181642
L2C-writeback_miss : 402
L2C-prefetch_requested : 3149714
L2C-prefetch_issued : 3149415
L2C-prefetch_useful : 16717
L2C-prefetch_useless : 150860
L2C-Avg_miss_latency : 73.9167

LLC TOTAL     ACCESS:    1505412  HIT:    1323536  MISS:     181876
LLC LOAD      ACCESS:     188882  HIT:     163556  MISS:      25326
LLC RFO       ACCESS:      82815  HIT:      17026  MISS:      65789
LLC PREFETCH  ACCESS:    1097954  HIT:    1007569  MISS:      90385
LLC WRITEBACK ACCESS:     135761  HIT:     135385  MISS:        376
LLC PREFETCH  REQUESTED:          0  ISSUED:          0  USEFUL:      27503  USELESS:      69119
LLC AVERAGE MISS LATENCY: 161.802 cycles
LLC

SHEET
LLC-total_access : 1505412
LLC-total_hit : 1323536
LLC-total_miss : 181876
LLC-load_access : 188882
LLC-load_hit : 163556
LLC-load_miss : 25326
LLC-rfo_access : 82815
LLC-rfo_hit : 17026
LLC-rfo_miss : 65789
LLC-prefetch_access : 1097954
LLC-prefetch_hit : 1007569
LLC-prefetch_miss : 90385
LLC-writeback_access : 135761
LLC-writeback_hit : 135385
LLC-writeback_miss : 376
LLC-prefetch_requested : 0
LLC-prefetch_issued : 0
LLC-prefetch_useful : 27503
LLC-prefetch_useless : 69119
LLC-Avg_miss_latency : 161.802

Major fault: 0 Minor fault: 5303
CPU 0 L1D next line prefetcher final stats

DRAM Statistics
 CHANNEL 0
 RQ ROW_BUFFER_HIT:      52063  ROW_BUFFER_MISS:     129421
 DBUS_CONGESTED:      95879
 WQ ROW_BUFFER_HIT:      24438  ROW_BUFFER_MISS:      65565  FULL:          0

 AVG_CONGESTED_CYCLE: 6

CPU 0 Branch Prediction Accuracy: 98.6482% MPKI: 3.1551 Average ROB Occupancy at Mispredict: 81.5959

Branch types
NOT_BRANCH: 38329598 76.6592%
BRANCH_DIRECT_JUMP: 510116 1.02023%
BRANCH_INDIRECT: 225730 0.45146%
BRANCH_CONDITIONAL: 8366762 16.7335%
BRANCH_DIRECT_CALL: 600748 1.2015%
BRANCH_INDIRECT_CALL: 682990 1.36598%
BRANCH_RETURN: 1283974 2.56795%
BRANCH_OTHER: 0 0%

