Initialize SIGNATURE TABLE
ST_SET: 1
ST_WAY: 256
ST_TAG_BIT: 16
ST_TAG_MASK: ffff

Initialize PATTERN TABLE
PT_SET: 512
PT_WAY: 4
SIG_DELTA_BIT: 7
C_SIG_BIT: 4
C_DELTA_BIT: 4

Initialize PREFETCH FILTER
FILTER_SET: 1024

*** ChampSim Multicore Out-of-Order Simulator ***

Warmup Instructions: 50000000
Simulation Instructions: 50000000
Number of CPUs: 1
LLC sets: 2048
LLC ways: 16
Off-chip DRAM Size: 4096 MB Channels: 1 Width: 64-bit Data Rate: 3200 MT/s

CPU 0 runs /home/mbaradaran/ChampSim/dpc3_traces/client_001.champsimtrace.xz
CPU 0 L1D next line prefetcher
Heartbeat CPU 0 instructions: 10000003 cycles: 3411115 heartbeat IPC: 2.93159 cumulative IPC: 2.93159 (Simulation time: 0 hr 1 min 21 sec) 
Heartbeat CPU 0 instructions: 20000001 cycles: 7120122 heartbeat IPC: 2.69614 cumulative IPC: 2.80894 (Simulation time: 0 hr 2 min 56 sec) 
Heartbeat CPU 0 instructions: 30000001 cycles: 10483698 heartbeat IPC: 2.97303 cumulative IPC: 2.86159 (Simulation time: 0 hr 4 min 27 sec) 
Heartbeat CPU 0 instructions: 40000003 cycles: 14353791 heartbeat IPC: 2.58392 cumulative IPC: 2.78672 (Simulation time: 0 hr 5 min 55 sec) 
Heartbeat CPU 0 instructions: 50000003 cycles: 17651563 heartbeat IPC: 3.03235 cumulative IPC: 2.83261 (Simulation time: 0 hr 7 min 28 sec) 

Warmup complete CPU 0 instructions: 50000003 cycles: 17651563 (Simulation time: 0 hr 7 min 28 sec) 

Heartbeat CPU 0 instructions: 60000000 cycles: 27333453 heartbeat IPC: 1.03286 cumulative IPC: 1.03286 (Simulation time: 0 hr 8 min 59 sec) 
Heartbeat CPU 0 instructions: 70000000 cycles: 35739388 heartbeat IPC: 1.18964 cumulative IPC: 1.10572 (Simulation time: 0 hr 10 min 7 sec) 
Heartbeat CPU 0 instructions: 80000002 cycles: 45386361 heartbeat IPC: 1.03659 cumulative IPC: 1.08167 (Simulation time: 0 hr 11 min 52 sec) 
Heartbeat CPU 0 instructions: 90000000 cycles: 53850584 heartbeat IPC: 1.18144 cumulative IPC: 1.105 (Simulation time: 0 hr 12 min 53 sec) 
Heartbeat CPU 0 instructions: 100000002 cycles: 62891768 heartbeat IPC: 1.10605 cumulative IPC: 1.10521 (Simulation time: 0 hr 14 min 11 sec) 
Finished CPU 0 instructions: 50000000 cycles: 45240208 cumulative IPC: 1.10521 (Simulation time: 0 hr 14 min 11 sec) 

ChampSim completed all CPUs

Region of Interest Statistics

CPU 0 cumulative IPC: 1.10521 instructions: 50000000 cycles: 45240208

SHEET
IPC : 1.10521

L1D TOTAL     ACCESS:   21779254  HIT:   20942287  MISS:     836967
L1D LOAD      ACCESS:    9082763  HIT:    8692299  MISS:     390464
L1D RFO       ACCESS:    4050837  HIT:    3992026  MISS:      58811
L1D PREFETCH  ACCESS:    8645654  HIT:    8257962  MISS:     387692
L1D WRITEBACK ACCESS:          0  HIT:          0  MISS:          0
L1D PREFETCH  REQUESTED:    9130130  ISSUED:    8825441  USEFUL:     134536  USELESS:     253129
L1D AVERAGE MISS LATENCY: 46.6931 cycles
L1D

SHEET
L1D-total_access : 21779254
L1D-total_hit : 20942287
L1D-total_miss : 836967
L1D-load_access : 9082763
L1D-load_hit : 8692299
L1D-load_miss : 390464
L1D-rfo_access : 4050837
L1D-rfo_hit : 3992026
L1D-rfo_miss : 58811
L1D-prefetch_access : 8645654
L1D-prefetch_hit : 8257962
L1D-prefetch_miss : 387692
L1D-writeback_access : 0
L1D-writeback_hit : 0
L1D-writeback_miss : 0
L1D-prefetch_requested : 9130130
L1D-prefetch_issued : 8825441
L1D-prefetch_useful : 134536
L1D-prefetch_useless : 253129
L1D-Avg_miss_latency : 46.6931

L1I TOTAL     ACCESS:    8919938  HIT:    8254900  MISS:     665038
L1I LOAD      ACCESS:    8919938  HIT:    8254900  MISS:     665038
L1I RFO       ACCESS:          0  HIT:          0  MISS:          0
L1I PREFETCH  ACCESS:          0  HIT:          0  MISS:          0
L1I WRITEBACK ACCESS:          0  HIT:          0  MISS:          0
L1I PREFETCH  REQUESTED:          0  ISSUED:          0  USEFUL:          0  USELESS:          0
L1I AVERAGE MISS LATENCY: 16.4316 cycles
L1I

SHEET
L1I-total_access : 8919938
L1I-total_hit : 8254900
L1I-total_miss : 665038
L1I-load_access : 8919938
L1I-load_hit : 8254900
L1I-load_miss : 665038
L1I-rfo_access : 0
L1I-rfo_hit : 0
L1I-rfo_miss : 0
L1I-prefetch_access : 0
L1I-prefetch_hit : 0
L1I-prefetch_miss : 0
L1I-writeback_access : 0
L1I-writeback_hit : 0
L1I-writeback_miss : 0
L1I-prefetch_requested : 0
L1I-prefetch_issued : 0
L1I-prefetch_useful : 0
L1I-prefetch_useless : 0
L1I-Avg_miss_latency : 16.4316

L2C TOTAL     ACCESS:    2621179  HIT:    2316625  MISS:     304554
L2C LOAD      ACCESS:    1033967  HIT:     906597  MISS:     127370
L2C RFO       ACCESS:      58105  HIT:      21378  MISS:      36727
L2C PREFETCH  ACCESS:    1339390  HIT:    1199149  MISS:     140241
L2C WRITEBACK ACCESS:     189717  HIT:     189501  MISS:        216
L2C PREFETCH  REQUESTED:    1803078  ISSUED:    1802773  USEFUL:      12838  USELESS:     127816
L2C AVERAGE MISS LATENCY: 97.7965 cycles
L2C

SHEET
L2C-total_access : 2621179
L2C-total_hit : 2316625
L2C-total_miss : 304554
L2C-load_access : 1033967
L2C-load_hit : 906597
L2C-load_miss : 127370
L2C-rfo_access : 58105
L2C-rfo_hit : 21378
L2C-rfo_miss : 36727
L2C-prefetch_access : 1339390
L2C-prefetch_hit : 1199149
L2C-prefetch_miss : 140241
L2C-writeback_access : 189717
L2C-writeback_hit : 189501
L2C-writeback_miss : 216
L2C-prefetch_requested : 1803078
L2C-prefetch_issued : 1802773
L2C-prefetch_useful : 12838
L2C-prefetch_useless : 127816
L2C-Avg_miss_latency : 97.7965

LLC TOTAL     ACCESS:     810700  HIT:     616073  MISS:     194627
LLC LOAD      ACCESS:     126924  HIT:      81148  MISS:      45776
LLC RFO       ACCESS:      36727  HIT:       8633  MISS:      28094
LLC PREFETCH  ACCESS:     541180  HIT:     421117  MISS:     120063
LLC WRITEBACK ACCESS:     105869  HIT:     105175  MISS:        694
LLC PREFETCH  REQUESTED:          0  ISSUED:          0  USEFUL:      31396  USELESS:      91304
LLC AVERAGE MISS LATENCY: 173.478 cycles
LLC

SHEET
LLC-total_access : 810700
LLC-total_hit : 616073
LLC-total_miss : 194627
LLC-load_access : 126924
LLC-load_hit : 81148
LLC-load_miss : 45776
LLC-rfo_access : 36727
LLC-rfo_hit : 8633
LLC-rfo_miss : 28094
LLC-prefetch_access : 541180
LLC-prefetch_hit : 421117
LLC-prefetch_miss : 120063
LLC-writeback_access : 105869
LLC-writeback_hit : 105175
LLC-writeback_miss : 694
LLC-prefetch_requested : 0
LLC-prefetch_issued : 0
LLC-prefetch_useful : 31396
LLC-prefetch_useless : 91304
LLC-Avg_miss_latency : 173.478

Major fault: 0 Minor fault: 3433
CPU 0 L1D next line prefetcher final stats

DRAM Statistics
 CHANNEL 0
 RQ ROW_BUFFER_HIT:      46262  ROW_BUFFER_MISS:     147659
 DBUS_CONGESTED:     111609
 WQ ROW_BUFFER_HIT:      16326  ROW_BUFFER_MISS:      64000  FULL:          0

 AVG_CONGESTED_CYCLE: 5

CPU 0 Branch Prediction Accuracy: 97.9037% MPKI: 3.63418 Average ROB Occupancy at Mispredict: 79.1482

Branch types
NOT_BRANCH: 41331370 82.6627%
BRANCH_DIRECT_JUMP: 455615 0.91123%
BRANCH_INDIRECT: 20390 0.04078%
BRANCH_CONDITIONAL: 6745373 13.4907%
BRANCH_DIRECT_CALL: 494532 0.989064%
BRANCH_INDIRECT_CALL: 228815 0.45763%
BRANCH_RETURN: 723559 1.44712%
BRANCH_OTHER: 0 0%

