Initialize SIGNATURE TABLE
ST_SET: 1
ST_WAY: 256
ST_TAG_BIT: 16
ST_TAG_MASK: ffff

Initialize PATTERN TABLE
PT_SET: 512
PT_WAY: 4
SIG_DELTA_BIT: 7
C_SIG_BIT: 4
C_DELTA_BIT: 4

Initialize PREFETCH FILTER
FILTER_SET: 1024

*** ChampSim Multicore Out-of-Order Simulator ***

Warmup Instructions: 50000000
Simulation Instructions: 50000000
Number of CPUs: 1
LLC sets: 2048
LLC ways: 16
Off-chip DRAM Size: 4096 MB Channels: 1 Width: 64-bit Data Rate: 3200 MT/s

CPU 0 runs /home/mbaradaran/ChampSim/dpc3_traces/client_005.champsimtrace.xz
CPU 0 L1D next line prefetcher
Heartbeat CPU 0 instructions: 10000001 cycles: 3292372 heartbeat IPC: 3.03732 cumulative IPC: 3.03732 (Simulation time: 0 hr 1 min 27 sec) 
Heartbeat CPU 0 instructions: 20000002 cycles: 6698613 heartbeat IPC: 2.93579 cumulative IPC: 2.98569 (Simulation time: 0 hr 3 min 6 sec) 
Heartbeat CPU 0 instructions: 30000001 cycles: 10392343 heartbeat IPC: 2.70729 cumulative IPC: 2.88674 (Simulation time: 0 hr 4 min 44 sec) 
Heartbeat CPU 0 instructions: 40000000 cycles: 14070539 heartbeat IPC: 2.71872 cumulative IPC: 2.84282 (Simulation time: 0 hr 6 min 30 sec) 
Heartbeat CPU 0 instructions: 50000001 cycles: 17344907 heartbeat IPC: 3.05402 cumulative IPC: 2.88269 (Simulation time: 0 hr 7 min 56 sec) 

Warmup complete CPU 0 instructions: 50000001 cycles: 17344907 (Simulation time: 0 hr 7 min 56 sec) 

Heartbeat CPU 0 instructions: 60000002 cycles: 27765116 heartbeat IPC: 0.959674 cumulative IPC: 0.959674 (Simulation time: 0 hr 9 min 6 sec) 
Heartbeat CPU 0 instructions: 70000002 cycles: 37102653 heartbeat IPC: 1.07095 cumulative IPC: 1.01226 (Simulation time: 0 hr 10 min 21 sec) 
Heartbeat CPU 0 instructions: 80000001 cycles: 45908582 heartbeat IPC: 1.1356 cumulative IPC: 1.05028 (Simulation time: 0 hr 11 min 38 sec) 
Heartbeat CPU 0 instructions: 90000002 cycles: 56939240 heartbeat IPC: 0.906564 cumulative IPC: 1.01025 (Simulation time: 0 hr 12 min 59 sec) 
Heartbeat CPU 0 instructions: 100000002 cycles: 66721826 heartbeat IPC: 1.02222 cumulative IPC: 1.01262 (Simulation time: 0 hr 14 min 10 sec) 
Finished CPU 0 instructions: 50000001 cycles: 49376919 cumulative IPC: 1.01262 (Simulation time: 0 hr 14 min 10 sec) 

ChampSim completed all CPUs

Region of Interest Statistics

CPU 0 cumulative IPC: 1.01262 instructions: 50000001 cycles: 49376919

SHEET
IPC : 1.01262

L1D TOTAL     ACCESS:   21239857  HIT:   20703235  MISS:     536622
L1D LOAD      ACCESS:    7437847  HIT:    7268027  MISS:     169820
L1D RFO       ACCESS:    6859942  HIT:    6675983  MISS:     183959
L1D PREFETCH  ACCESS:    6942068  HIT:    6759225  MISS:     182843
L1D WRITEBACK ACCESS:          0  HIT:          0  MISS:          0
L1D PREFETCH  REQUESTED:    7463029  ISSUED:    7057366  USEFUL:      61691  USELESS:     121038
L1D AVERAGE MISS LATENCY: 90.9453 cycles
L1D

SHEET
L1D-total_access : 21239857
L1D-total_hit : 20703235
L1D-total_miss : 536622
L1D-load_access : 7437847
L1D-load_hit : 7268027
L1D-load_miss : 169820
L1D-rfo_access : 6859942
L1D-rfo_hit : 6675983
L1D-rfo_miss : 183959
L1D-prefetch_access : 6942068
L1D-prefetch_hit : 6759225
L1D-prefetch_miss : 182843
L1D-writeback_access : 0
L1D-writeback_hit : 0
L1D-writeback_miss : 0
L1D-prefetch_requested : 7463029
L1D-prefetch_issued : 7057366
L1D-prefetch_useful : 61691
L1D-prefetch_useless : 121038
L1D-Avg_miss_latency : 90.9453

L1I TOTAL     ACCESS:    9481932  HIT:    7759416  MISS:    1722516
L1I LOAD      ACCESS:    9481932  HIT:    7759416  MISS:    1722516
L1I RFO       ACCESS:          0  HIT:          0  MISS:          0
L1I PREFETCH  ACCESS:          0  HIT:          0  MISS:          0
L1I WRITEBACK ACCESS:          0  HIT:          0  MISS:          0
L1I PREFETCH  REQUESTED:          0  ISSUED:          0  USEFUL:          0  USELESS:          0
L1I AVERAGE MISS LATENCY: 16.7619 cycles
L1I

SHEET
L1I-total_access : 9481932
L1I-total_hit : 7759416
L1I-total_miss : 1722516
L1I-load_access : 9481932
L1I-load_hit : 7759416
L1I-load_miss : 1722516
L1I-rfo_access : 0
L1I-rfo_hit : 0
L1I-rfo_miss : 0
L1I-prefetch_access : 0
L1I-prefetch_hit : 0
L1I-prefetch_miss : 0
L1I-writeback_access : 0
L1I-writeback_hit : 0
L1I-writeback_miss : 0
L1I-prefetch_requested : 0
L1I-prefetch_issued : 0
L1I-prefetch_useful : 0
L1I-prefetch_useless : 0
L1I-Avg_miss_latency : 16.7619

L2C TOTAL     ACCESS:    3901457  HIT:    3527736  MISS:     373721
L2C LOAD      ACCESS:    1880812  HIT:    1745889  MISS:     134923
L2C RFO       ACCESS:     180367  HIT:      32858  MISS:     147509
L2C PREFETCH  ACCESS:    1587240  HIT:    1496984  MISS:      90256
L2C WRITEBACK ACCESS:     253038  HIT:     252005  MISS:       1033
L2C PREFETCH  REQUESTED:    2042128  ISSUED:    2042109  USEFUL:       7091  USELESS:      82576
L2C AVERAGE MISS LATENCY: 123.864 cycles
L2C

SHEET
L2C-total_access : 3901457
L2C-total_hit : 3527736
L2C-total_miss : 373721
L2C-load_access : 1880812
L2C-load_hit : 1745889
L2C-load_miss : 134923
L2C-rfo_access : 180367
L2C-rfo_hit : 32858
L2C-rfo_miss : 147509
L2C-prefetch_access : 1587240
L2C-prefetch_hit : 1496984
L2C-prefetch_miss : 90256
L2C-writeback_access : 253038
L2C-writeback_hit : 252005
L2C-writeback_miss : 1033
L2C-prefetch_requested : 2042128
L2C-prefetch_issued : 2042109
L2C-prefetch_useful : 7091
L2C-prefetch_useless : 82576
L2C-Avg_miss_latency : 123.864

LLC TOTAL     ACCESS:     984984  HIT:     681186  MISS:     303798
LLC LOAD      ACCESS:     134888  HIT:      85168  MISS:      49720
LLC RFO       ACCESS:     147505  HIT:      16384  MISS:     131121
LLC PREFETCH  ACCESS:     504977  HIT:     382987  MISS:     121990
LLC WRITEBACK ACCESS:     197614  HIT:     196647  MISS:        967
LLC PREFETCH  REQUESTED:          0  ISSUED:          0  USEFUL:      30245  USELESS:      91163
LLC AVERAGE MISS LATENCY: 161.214 cycles
LLC

SHEET
LLC-total_access : 984984
LLC-total_hit : 681186
LLC-total_miss : 303798
LLC-load_access : 134888
LLC-load_hit : 85168
LLC-load_miss : 49720
LLC-rfo_access : 147505
LLC-rfo_hit : 16384
LLC-rfo_miss : 131121
LLC-prefetch_access : 504977
LLC-prefetch_hit : 382987
LLC-prefetch_miss : 121990
LLC-writeback_access : 197614
LLC-writeback_hit : 196647
LLC-writeback_miss : 967
LLC-prefetch_requested : 0
LLC-prefetch_issued : 0
LLC-prefetch_useful : 30245
LLC-prefetch_useless : 91163
LLC-Avg_miss_latency : 161.214

Major fault: 0 Minor fault: 6084
CPU 0 L1D next line prefetcher final stats

DRAM Statistics
 CHANNEL 0
 RQ ROW_BUFFER_HIT:      96994  ROW_BUFFER_MISS:     205828
 DBUS_CONGESTED:     225645
 WQ ROW_BUFFER_HIT:      51986  ROW_BUFFER_MISS:     130517  FULL:          0

 AVG_CONGESTED_CYCLE: 6

CPU 0 Branch Prediction Accuracy: 97.8666% MPKI: 3.9013 Average ROB Occupancy at Mispredict: 48.5162

Branch types
NOT_BRANCH: 40856327 81.7127%
BRANCH_DIRECT_JUMP: 484667 0.969334%
BRANCH_INDIRECT: 85086 0.170172%
BRANCH_CONDITIONAL: 6230886 12.4618%
BRANCH_DIRECT_CALL: 1028917 2.05783%
BRANCH_INDIRECT_CALL: 141825 0.28365%
BRANCH_RETURN: 1171986 2.34397%
BRANCH_OTHER: 0 0%

