Initialize SIGNATURE TABLE
ST_SET: 1
ST_WAY: 256
ST_TAG_BIT: 16
ST_TAG_MASK: ffff

Initialize PATTERN TABLE
PT_SET: 512
PT_WAY: 4
SIG_DELTA_BIT: 7
C_SIG_BIT: 4
C_DELTA_BIT: 4

Initialize PREFETCH FILTER
FILTER_SET: 1024

*** ChampSim Multicore Out-of-Order Simulator ***

Warmup Instructions: 50000000
Simulation Instructions: 50000000
Number of CPUs: 1
LLC sets: 2048
LLC ways: 16
Off-chip DRAM Size: 4096 MB Channels: 1 Width: 64-bit Data Rate: 3200 MT/s

CPU 0 runs /home/mbaradaran/ChampSim/dpc3_traces/client_007.champsimtrace.xz
CPU 0 L1D next line prefetcher
Heartbeat CPU 0 instructions: 10000001 cycles: 3644951 heartbeat IPC: 2.74352 cumulative IPC: 2.74352 (Simulation time: 0 hr 1 min 26 sec) 
Heartbeat CPU 0 instructions: 20000003 cycles: 7040198 heartbeat IPC: 2.94529 cumulative IPC: 2.84083 (Simulation time: 0 hr 3 min 0 sec) 
Heartbeat CPU 0 instructions: 30000000 cycles: 10916074 heartbeat IPC: 2.58006 cumulative IPC: 2.74824 (Simulation time: 0 hr 4 min 36 sec) 
Heartbeat CPU 0 instructions: 40000003 cycles: 15076603 heartbeat IPC: 2.40354 cumulative IPC: 2.65312 (Simulation time: 0 hr 6 min 22 sec) 
Heartbeat CPU 0 instructions: 50000002 cycles: 18484119 heartbeat IPC: 2.93469 cumulative IPC: 2.70502 (Simulation time: 0 hr 7 min 59 sec) 

Warmup complete CPU 0 instructions: 50000002 cycles: 18484119 (Simulation time: 0 hr 7 min 59 sec) 

Heartbeat CPU 0 instructions: 60000003 cycles: 27581116 heartbeat IPC: 1.09926 cumulative IPC: 1.09926 (Simulation time: 0 hr 9 min 28 sec) 
Heartbeat CPU 0 instructions: 70000003 cycles: 36977780 heartbeat IPC: 1.06421 cumulative IPC: 1.08145 (Simulation time: 0 hr 11 min 8 sec) 
Heartbeat CPU 0 instructions: 80000002 cycles: 43287351 heartbeat IPC: 1.58489 cumulative IPC: 1.20952 (Simulation time: 0 hr 12 min 20 sec) 
Heartbeat CPU 0 instructions: 90000002 cycles: 53549924 heartbeat IPC: 0.974415 cumulative IPC: 1.14071 (Simulation time: 0 hr 13 min 46 sec) 
Heartbeat CPU 0 instructions: 100000002 cycles: 62616969 heartbeat IPC: 1.1029 cumulative IPC: 1.13294 (Simulation time: 0 hr 15 min 16 sec) 
Finished CPU 0 instructions: 50000000 cycles: 44132850 cumulative IPC: 1.13294 (Simulation time: 0 hr 15 min 16 sec) 

ChampSim completed all CPUs

Region of Interest Statistics

CPU 0 cumulative IPC: 1.13294 instructions: 50000000 cycles: 44132850

SHEET
IPC : 1.13294

L1D TOTAL     ACCESS:   22130295  HIT:   20959619  MISS:    1170676
L1D LOAD      ACCESS:    8814884  HIT:    8291788  MISS:     523096
L1D RFO       ACCESS:    4895550  HIT:    4804339  MISS:      91211
L1D PREFETCH  ACCESS:    8419861  HIT:    7863492  MISS:     556369
L1D WRITEBACK ACCESS:          0  HIT:          0  MISS:          0
L1D PREFETCH  REQUESTED:    8868166  ISSUED:    8627807  USEFUL:     175013  USELESS:     381371
L1D AVERAGE MISS LATENCY: 34.1089 cycles
L1D

SHEET
L1D-total_access : 22130295
L1D-total_hit : 20959619
L1D-total_miss : 1170676
L1D-load_access : 8814884
L1D-load_hit : 8291788
L1D-load_miss : 523096
L1D-rfo_access : 4895550
L1D-rfo_hit : 4804339
L1D-rfo_miss : 91211
L1D-prefetch_access : 8419861
L1D-prefetch_hit : 7863492
L1D-prefetch_miss : 556369
L1D-writeback_access : 0
L1D-writeback_hit : 0
L1D-writeback_miss : 0
L1D-prefetch_requested : 8868166
L1D-prefetch_issued : 8627807
L1D-prefetch_useful : 175013
L1D-prefetch_useless : 381371
L1D-Avg_miss_latency : 34.1089

L1I TOTAL     ACCESS:    9020192  HIT:    7958358  MISS:    1061834
L1I LOAD      ACCESS:    9020192  HIT:    7958358  MISS:    1061834
L1I RFO       ACCESS:          0  HIT:          0  MISS:          0
L1I PREFETCH  ACCESS:          0  HIT:          0  MISS:          0
L1I WRITEBACK ACCESS:          0  HIT:          0  MISS:          0
L1I PREFETCH  REQUESTED:          0  ISSUED:          0  USEFUL:          0  USELESS:          0
L1I AVERAGE MISS LATENCY: 15.1916 cycles
L1I

SHEET
L1I-total_access : 9020192
L1I-total_hit : 7958358
L1I-total_miss : 1061834
L1I-load_access : 9020192
L1I-load_hit : 7958358
L1I-load_miss : 1061834
L1I-rfo_access : 0
L1I-rfo_hit : 0
L1I-rfo_miss : 0
L1I-prefetch_access : 0
L1I-prefetch_hit : 0
L1I-prefetch_miss : 0
L1I-writeback_access : 0
L1I-writeback_hit : 0
L1I-writeback_miss : 0
L1I-prefetch_requested : 0
L1I-prefetch_issued : 0
L1I-prefetch_useful : 0
L1I-prefetch_useless : 0
L1I-Avg_miss_latency : 15.1916

L2C TOTAL     ACCESS:    3814423  HIT:    3607377  MISS:     207046
L2C LOAD      ACCESS:    1555681  HIT:    1477092  MISS:      78589
L2C RFO       ACCESS:      89642  HIT:      48041  MISS:      41601
L2C PREFETCH  ACCESS:    1841216  HIT:    1754551  MISS:      86665
L2C WRITEBACK ACCESS:     327884  HIT:     327693  MISS:        191
L2C PREFETCH  REQUESTED:    2595966  ISSUED:    2595621  USEFUL:       8402  USELESS:      76613
L2C AVERAGE MISS LATENCY: 120.295 cycles
L2C

SHEET
L2C-total_access : 3814423
L2C-total_hit : 3607377
L2C-total_miss : 207046
L2C-load_access : 1555681
L2C-load_hit : 1477092
L2C-load_miss : 78589
L2C-rfo_access : 89642
L2C-rfo_hit : 48041
L2C-rfo_miss : 41601
L2C-prefetch_access : 1841216
L2C-prefetch_hit : 1754551
L2C-prefetch_miss : 86665
L2C-writeback_access : 327884
L2C-writeback_hit : 327693
L2C-writeback_miss : 191
L2C-prefetch_requested : 2595966
L2C-prefetch_issued : 2595621
L2C-prefetch_useful : 8402
L2C-prefetch_useless : 76613
L2C-Avg_miss_latency : 120.295

LLC TOTAL     ACCESS:    1049273  HIT:     880614  MISS:     168659
LLC LOAD      ACCESS:      78457  HIT:      40927  MISS:      37530
LLC RFO       ACCESS:      41600  HIT:       7122  MISS:      34478
LLC PREFETCH  ACCESS:     854703  HIT:     758374  MISS:      96329
LLC WRITEBACK ACCESS:      74513  HIT:      74191  MISS:        322
LLC PREFETCH  REQUESTED:          0  ISSUED:          0  USEFUL:      19970  USELESS:      75585
LLC AVERAGE MISS LATENCY: 176.251 cycles
LLC

SHEET
LLC-total_access : 1049273
LLC-total_hit : 880614
LLC-total_miss : 168659
LLC-load_access : 78457
LLC-load_hit : 40927
LLC-load_miss : 37530
LLC-rfo_access : 41600
LLC-rfo_hit : 7122
LLC-rfo_miss : 34478
LLC-prefetch_access : 854703
LLC-prefetch_hit : 758374
LLC-prefetch_miss : 96329
LLC-writeback_access : 74513
LLC-writeback_hit : 74191
LLC-writeback_miss : 322
LLC-prefetch_requested : 0
LLC-prefetch_issued : 0
LLC-prefetch_useful : 19970
LLC-prefetch_useless : 75585
LLC-Avg_miss_latency : 176.251

Major fault: 0 Minor fault: 4405
CPU 0 L1D next line prefetcher final stats

DRAM Statistics
 CHANNEL 0
 RQ ROW_BUFFER_HIT:      35019  ROW_BUFFER_MISS:     133313
 DBUS_CONGESTED:      92532
 WQ ROW_BUFFER_HIT:      13350  ROW_BUFFER_MISS:      44652  FULL:          0

 AVG_CONGESTED_CYCLE: 5

CPU 0 Branch Prediction Accuracy: 98.8607% MPKI: 1.8623 Average ROB Occupancy at Mispredict: 99.2812

Branch types
NOT_BRANCH: 41826773 83.6535%
BRANCH_DIRECT_JUMP: 735330 1.47066%
BRANCH_INDIRECT: 269194 0.538388%
BRANCH_CONDITIONAL: 5957947 11.9159%
BRANCH_DIRECT_CALL: 368758 0.737516%
BRANCH_INDIRECT_CALL: 226975 0.45395%
BRANCH_RETURN: 614696 1.22939%
BRANCH_OTHER: 0 0%

