Initialize SIGNATURE TABLE
ST_SET: 1
ST_WAY: 256
ST_TAG_BIT: 16
ST_TAG_MASK: ffff

Initialize PATTERN TABLE
PT_SET: 512
PT_WAY: 4
SIG_DELTA_BIT: 7
C_SIG_BIT: 4
C_DELTA_BIT: 4

Initialize PREFETCH FILTER
FILTER_SET: 1024

*** ChampSim Multicore Out-of-Order Simulator ***

Warmup Instructions: 50000000
Simulation Instructions: 50000000
Number of CPUs: 1
LLC sets: 2048
LLC ways: 16
Off-chip DRAM Size: 4096 MB Channels: 1 Width: 64-bit Data Rate: 3200 MT/s

CPU 0 runs /home/mbaradaran/ChampSim/dpc3_traces/server_034.champsimtrace.xz
CPU 0 L1D next line prefetcher
Heartbeat CPU 0 instructions: 10000000 cycles: 3338428 heartbeat IPC: 2.99542 cumulative IPC: 2.99542 (Simulation time: 0 hr 1 min 31 sec) 
Heartbeat CPU 0 instructions: 20000002 cycles: 6668922 heartbeat IPC: 3.00256 cumulative IPC: 2.99899 (Simulation time: 0 hr 3 min 4 sec) 
Heartbeat CPU 0 instructions: 30000003 cycles: 10007300 heartbeat IPC: 2.99547 cumulative IPC: 2.99781 (Simulation time: 0 hr 4 min 38 sec) 
Heartbeat CPU 0 instructions: 40000001 cycles: 13343747 heartbeat IPC: 2.9972 cumulative IPC: 2.99766 (Simulation time: 0 hr 6 min 25 sec) 
Heartbeat CPU 0 instructions: 50000000 cycles: 16680349 heartbeat IPC: 2.99706 cumulative IPC: 2.99754 (Simulation time: 0 hr 7 min 49 sec) 

Warmup complete CPU 0 instructions: 50000002 cycles: 16680350 (Simulation time: 0 hr 7 min 49 sec) 

Heartbeat CPU 0 instructions: 60000002 cycles: 27083223 heartbeat IPC: 0.961273 cumulative IPC: 0.961273 (Simulation time: 0 hr 8 min 48 sec) 
Heartbeat CPU 0 instructions: 70000002 cycles: 37634033 heartbeat IPC: 0.947795 cumulative IPC: 0.954486 (Simulation time: 0 hr 9 min 41 sec) 
Heartbeat CPU 0 instructions: 80000000 cycles: 48030616 heartbeat IPC: 0.961854 cumulative IPC: 0.95693 (Simulation time: 0 hr 10 min 35 sec) 
Heartbeat CPU 0 instructions: 90000002 cycles: 58418182 heartbeat IPC: 0.96269 cumulative IPC: 0.958363 (Simulation time: 0 hr 11 min 35 sec) 
Heartbeat CPU 0 instructions: 100000002 cycles: 68855839 heartbeat IPC: 0.958069 cumulative IPC: 0.958304 (Simulation time: 0 hr 12 min 32 sec) 
Finished CPU 0 instructions: 50000000 cycles: 52175489 cumulative IPC: 0.958304 (Simulation time: 0 hr 12 min 32 sec) 

ChampSim completed all CPUs

Region of Interest Statistics

CPU 0 cumulative IPC: 0.958304 instructions: 50000000 cycles: 52175489

SHEET
IPC : 0.958304

L1D TOTAL     ACCESS:   21414807  HIT:   19988446  MISS:    1426361
L1D LOAD      ACCESS:    7650056  HIT:    7004455  MISS:     645601
L1D RFO       ACCESS:    6254816  HIT:    6109501  MISS:     145315
L1D PREFETCH  ACCESS:    7509935  HIT:    6874490  MISS:     635445
L1D WRITEBACK ACCESS:          0  HIT:          0  MISS:          0
L1D PREFETCH  REQUESTED:    7696460  ISSUED:    7634043  USEFUL:     148466  USELESS:     486945
L1D AVERAGE MISS LATENCY: 17.6131 cycles
L1D

SHEET
L1D-total_access : 21414807
L1D-total_hit : 19988446
L1D-total_miss : 1426361
L1D-load_access : 7650056
L1D-load_hit : 7004455
L1D-load_miss : 645601
L1D-rfo_access : 6254816
L1D-rfo_hit : 6109501
L1D-rfo_miss : 145315
L1D-prefetch_access : 7509935
L1D-prefetch_hit : 6874490
L1D-prefetch_miss : 635445
L1D-writeback_access : 0
L1D-writeback_hit : 0
L1D-writeback_miss : 0
L1D-prefetch_requested : 7696460
L1D-prefetch_issued : 7634043
L1D-prefetch_useful : 148466
L1D-prefetch_useless : 486945
L1D-Avg_miss_latency : 17.6131

L1I TOTAL     ACCESS:    9658842  HIT:    5957240  MISS:    3701602
L1I LOAD      ACCESS:    9658842  HIT:    5957240  MISS:    3701602
L1I RFO       ACCESS:          0  HIT:          0  MISS:          0
L1I PREFETCH  ACCESS:          0  HIT:          0  MISS:          0
L1I WRITEBACK ACCESS:          0  HIT:          0  MISS:          0
L1I PREFETCH  REQUESTED:          0  ISSUED:          0  USEFUL:          0  USELESS:          0
L1I AVERAGE MISS LATENCY: 14.5255 cycles
L1I

SHEET
L1I-total_access : 9658842
L1I-total_hit : 5957240
L1I-total_miss : 3701602
L1I-load_access : 9658842
L1I-load_hit : 5957240
L1I-load_miss : 3701602
L1I-rfo_access : 0
L1I-rfo_hit : 0
L1I-rfo_miss : 0
L1I-prefetch_access : 0
L1I-prefetch_hit : 0
L1I-prefetch_miss : 0
L1I-writeback_access : 0
L1I-writeback_hit : 0
L1I-writeback_miss : 0
L1I-prefetch_requested : 0
L1I-prefetch_issued : 0
L1I-prefetch_useful : 0
L1I-prefetch_useless : 0
L1I-Avg_miss_latency : 14.5255

L2C TOTAL     ACCESS:    8890504  HIT:    8741115  MISS:     149389
L2C LOAD      ACCESS:    4339858  HIT:    4244869  MISS:      94989
L2C RFO       ACCESS:     144950  HIT:     136410  MISS:       8540
L2C PREFETCH  ACCESS:    4054548  HIT:    4009516  MISS:      45032
L2C WRITEBACK ACCESS:     351148  HIT:     350320  MISS:        828
L2C PREFETCH  REQUESTED:    6078258  ISSUED:    6077533  USEFUL:       3793  USELESS:      41281
L2C AVERAGE MISS LATENCY: 36.0908 cycles
L2C

SHEET
L2C-total_access : 8890504
L2C-total_hit : 8741115
L2C-total_miss : 149389
L2C-load_access : 4339858
L2C-load_hit : 4244869
L2C-load_miss : 94989
L2C-rfo_access : 144950
L2C-rfo_hit : 136410
L2C-rfo_miss : 8540
L2C-prefetch_access : 4054548
L2C-prefetch_hit : 4009516
L2C-prefetch_miss : 45032
L2C-writeback_access : 351148
L2C-writeback_hit : 350320
L2C-writeback_miss : 828
L2C-prefetch_requested : 6078258
L2C-prefetch_issued : 6077533
L2C-prefetch_useful : 3793
L2C-prefetch_useless : 41281
L2C-Avg_miss_latency : 36.0908

LLC TOTAL     ACCESS:    1910941  HIT:    1898110  MISS:      12831
LLC LOAD      ACCESS:      93840  HIT:      90533  MISS:       3307
LLC RFO       ACCESS:       8539  HIT:       8281  MISS:        258
LLC PREFETCH  ACCESS:    1767768  HIT:    1758567  MISS:       9201
LLC WRITEBACK ACCESS:      40794  HIT:      40729  MISS:         65
LLC PREFETCH  REQUESTED:          0  ISSUED:          0  USEFUL:       3378  USELESS:       4194
LLC AVERAGE MISS LATENCY: 145.609 cycles
LLC

SHEET
LLC-total_access : 1910941
LLC-total_hit : 1898110
LLC-total_miss : 12831
LLC-load_access : 93840
LLC-load_hit : 90533
LLC-load_miss : 3307
LLC-rfo_access : 8539
LLC-rfo_hit : 8281
LLC-rfo_miss : 258
LLC-prefetch_access : 1767768
LLC-prefetch_hit : 1758567
LLC-prefetch_miss : 9201
LLC-writeback_access : 40794
LLC-writeback_hit : 40729
LLC-writeback_miss : 65
LLC-prefetch_requested : 0
LLC-prefetch_issued : 0
LLC-prefetch_useful : 3378
LLC-prefetch_useless : 4194
LLC-Avg_miss_latency : 145.609

Major fault: 0 Minor fault: 1170
CPU 0 L1D next line prefetcher final stats

DRAM Statistics
 CHANNEL 0
 RQ ROW_BUFFER_HIT:       3713  ROW_BUFFER_MISS:       9052
 DBUS_CONGESTED:       5710
 WQ ROW_BUFFER_HIT:       1024  ROW_BUFFER_MISS:       2697  FULL:          0

 AVG_CONGESTED_CYCLE: 5

CPU 0 Branch Prediction Accuracy: 99.926% MPKI: 0.14472 Average ROB Occupancy at Mispredict: 128.111

Branch types
NOT_BRANCH: 40220816 80.4416%
BRANCH_DIRECT_JUMP: 771317 1.54263%
BRANCH_INDIRECT: 108662 0.217324%
BRANCH_CONDITIONAL: 6375014 12.75%
BRANCH_DIRECT_CALL: 1049630 2.09926%
BRANCH_INDIRECT_CALL: 212280 0.42456%
BRANCH_RETURN: 1261919 2.52384%
BRANCH_OTHER: 0 0%

