Initialize SIGNATURE TABLE
ST_SET: 1
ST_WAY: 256
ST_TAG_BIT: 16
ST_TAG_MASK: ffff

Initialize PATTERN TABLE
PT_SET: 512
PT_WAY: 4
SIG_DELTA_BIT: 7
C_SIG_BIT: 4
C_DELTA_BIT: 4

Initialize PREFETCH FILTER
FILTER_SET: 1024

*** ChampSim Multicore Out-of-Order Simulator ***

Warmup Instructions: 50000000
Simulation Instructions: 50000000
Number of CPUs: 1
LLC sets: 2048
LLC ways: 16
Off-chip DRAM Size: 4096 MB Channels: 1 Width: 64-bit Data Rate: 3200 MT/s

CPU 0 runs /home/mbaradaran/ChampSim/dpc3_traces/server_013.champsimtrace.xz
CPU 0 L1D next line prefetcher
Heartbeat CPU 0 instructions: 10000000 cycles: 3219450 heartbeat IPC: 3.10612 cumulative IPC: 3.10612 (Simulation time: 0 hr 1 min 31 sec) 
Heartbeat CPU 0 instructions: 20000001 cycles: 6427575 heartbeat IPC: 3.11709 cumulative IPC: 3.11159 (Simulation time: 0 hr 3 min 4 sec) 
Heartbeat CPU 0 instructions: 30000002 cycles: 9639193 heartbeat IPC: 3.1137 cumulative IPC: 3.11229 (Simulation time: 0 hr 4 min 41 sec) 
Heartbeat CPU 0 instructions: 40000002 cycles: 12846918 heartbeat IPC: 3.11747 cumulative IPC: 3.11359 (Simulation time: 0 hr 6 min 9 sec) 
Heartbeat CPU 0 instructions: 50000000 cycles: 16054898 heartbeat IPC: 3.11723 cumulative IPC: 3.11431 (Simulation time: 0 hr 7 min 47 sec) 

Warmup complete CPU 0 instructions: 50000004 cycles: 16054899 (Simulation time: 0 hr 7 min 47 sec) 

Heartbeat CPU 0 instructions: 60000002 cycles: 28454328 heartbeat IPC: 0.806489 cumulative IPC: 0.806489 (Simulation time: 0 hr 9 min 1 sec) 
Heartbeat CPU 0 instructions: 70000000 cycles: 40991116 heartbeat IPC: 0.797652 cumulative IPC: 0.802046 (Simulation time: 0 hr 10 min 14 sec) 
Heartbeat CPU 0 instructions: 80000001 cycles: 53027824 heartbeat IPC: 0.830792 cumulative IPC: 0.811404 (Simulation time: 0 hr 11 min 22 sec) 
Heartbeat CPU 0 instructions: 90000003 cycles: 65276544 heartbeat IPC: 0.816412 cumulative IPC: 0.812651 (Simulation time: 0 hr 12 min 32 sec) 
Heartbeat CPU 0 instructions: 100000000 cycles: 77523304 heartbeat IPC: 0.816542 cumulative IPC: 0.813426 (Simulation time: 0 hr 13 min 43 sec) 
Finished CPU 0 instructions: 50000000 cycles: 61468406 cumulative IPC: 0.813426 (Simulation time: 0 hr 13 min 43 sec) 

ChampSim completed all CPUs

Region of Interest Statistics

CPU 0 cumulative IPC: 0.813426 instructions: 50000000 cycles: 61468406

SHEET
IPC : 0.813426

L1D TOTAL     ACCESS:   18988958  HIT:   17920656  MISS:    1068302
L1D LOAD      ACCESS:    7103074  HIT:    6615706  MISS:     487368
L1D RFO       ACCESS:    5010618  HIT:    4929955  MISS:      80663
L1D PREFETCH  ACCESS:    6875266  HIT:    6374995  MISS:     500271
L1D WRITEBACK ACCESS:          0  HIT:          0  MISS:          0
L1D PREFETCH  REQUESTED:    7142759  ISSUED:    7039222  USEFUL:     147940  USELESS:     352340
L1D AVERAGE MISS LATENCY: 40.6873 cycles
L1D

SHEET
L1D-total_access : 18988958
L1D-total_hit : 17920656
L1D-total_miss : 1068302
L1D-load_access : 7103074
L1D-load_hit : 6615706
L1D-load_miss : 487368
L1D-rfo_access : 5010618
L1D-rfo_hit : 4929955
L1D-rfo_miss : 80663
L1D-prefetch_access : 6875266
L1D-prefetch_hit : 6374995
L1D-prefetch_miss : 500271
L1D-writeback_access : 0
L1D-writeback_hit : 0
L1D-writeback_miss : 0
L1D-prefetch_requested : 7142759
L1D-prefetch_issued : 7039222
L1D-prefetch_useful : 147940
L1D-prefetch_useless : 352340
L1D-Avg_miss_latency : 40.6873

L1I TOTAL     ACCESS:    8590034  HIT:    6676097  MISS:    1913937
L1I LOAD      ACCESS:    8590034  HIT:    6676097  MISS:    1913937
L1I RFO       ACCESS:          0  HIT:          0  MISS:          0
L1I PREFETCH  ACCESS:          0  HIT:          0  MISS:          0
L1I WRITEBACK ACCESS:          0  HIT:          0  MISS:          0
L1I PREFETCH  REQUESTED:          0  ISSUED:          0  USEFUL:          0  USELESS:          0
L1I AVERAGE MISS LATENCY: 26.9977 cycles
L1I

SHEET
L1I-total_access : 8590034
L1I-total_hit : 6676097
L1I-total_miss : 1913937
L1I-load_access : 8590034
L1I-load_hit : 6676097
L1I-load_miss : 1913937
L1I-rfo_access : 0
L1I-rfo_hit : 0
L1I-rfo_miss : 0
L1I-prefetch_access : 0
L1I-prefetch_hit : 0
L1I-prefetch_miss : 0
L1I-writeback_access : 0
L1I-writeback_hit : 0
L1I-writeback_miss : 0
L1I-prefetch_requested : 0
L1I-prefetch_issued : 0
L1I-prefetch_useful : 0
L1I-prefetch_useless : 0
L1I-Avg_miss_latency : 26.9977

L2C TOTAL     ACCESS:    4787045  HIT:    3498503  MISS:    1288542
L2C LOAD      ACCESS:    2380149  HIT:    1495264  MISS:     884885
L2C RFO       ACCESS:      79326  HIT:      32451  MISS:      46875
L2C PREFETCH  ACCESS:    2051637  HIT:    1695881  MISS:     355756
L2C WRITEBACK ACCESS:     275933  HIT:     274907  MISS:       1026
L2C PREFETCH  REQUESTED:    4325458  ISSUED:    4325066  USEFUL:      64652  USELESS:     290966
L2C AVERAGE MISS LATENCY: 41.4474 cycles
L2C

SHEET
L2C-total_access : 4787045
L2C-total_hit : 3498503
L2C-total_miss : 1288542
L2C-load_access : 2380149
L2C-load_hit : 1495264
L2C-load_miss : 884885
L2C-rfo_access : 79326
L2C-rfo_hit : 32451
L2C-rfo_miss : 46875
L2C-prefetch_access : 2051637
L2C-prefetch_hit : 1695881
L2C-prefetch_miss : 355756
L2C-writeback_access : 275933
L2C-writeback_hit : 274907
L2C-writeback_miss : 1026
L2C-prefetch_requested : 4325458
L2C-prefetch_issued : 4325066
L2C-prefetch_useful : 64652
L2C-prefetch_useless : 290966
L2C-Avg_miss_latency : 41.4474

LLC TOTAL     ACCESS:    3340566  HIT:    3125074  MISS:     215492
LLC LOAD      ACCESS:     854247  HIT:     805061  MISS:      49186
LLC RFO       ACCESS:      46873  HIT:      36410  MISS:      10463
LLC PREFETCH  ACCESS:    2271322  HIT:    2116147  MISS:     155175
LLC WRITEBACK ACCESS:     168124  HIT:     167456  MISS:        668
LLC PREFETCH  REQUESTED:          0  ISSUED:          0  USEFUL:      29989  USELESS:     124739
LLC AVERAGE MISS LATENCY: 162.217 cycles
LLC

SHEET
LLC-total_access : 3340566
LLC-total_hit : 3125074
LLC-total_miss : 215492
LLC-load_access : 854247
LLC-load_hit : 805061
LLC-load_miss : 49186
LLC-rfo_access : 46873
LLC-rfo_hit : 36410
LLC-rfo_miss : 10463
LLC-prefetch_access : 2271322
LLC-prefetch_hit : 2116147
LLC-prefetch_miss : 155175
LLC-writeback_access : 168124
LLC-writeback_hit : 167456
LLC-writeback_miss : 668
LLC-prefetch_requested : 0
LLC-prefetch_issued : 0
LLC-prefetch_useful : 29989
LLC-prefetch_useless : 124739
LLC-Avg_miss_latency : 162.217

Major fault: 0 Minor fault: 6200
CPU 0 L1D next line prefetcher final stats

DRAM Statistics
 CHANNEL 0
 RQ ROW_BUFFER_HIT:      38984  ROW_BUFFER_MISS:     175837
 DBUS_CONGESTED:      82889
 WQ ROW_BUFFER_HIT:      12192  ROW_BUFFER_MISS:      54470  FULL:          0

 AVG_CONGESTED_CYCLE: 5

CPU 0 Branch Prediction Accuracy: 99.4114% MPKI: 1.0933 Average ROB Occupancy at Mispredict: 58.5373

Branch types
NOT_BRANCH: 40713049 81.4261%
BRANCH_DIRECT_JUMP: 463697 0.927394%
BRANCH_INDIRECT: 146542 0.293084%
BRANCH_CONDITIONAL: 6981921 13.9638%
BRANCH_DIRECT_CALL: 665003 1.33001%
BRANCH_INDIRECT_CALL: 165150 0.3303%
BRANCH_RETURN: 864309 1.72862%
BRANCH_OTHER: 0 0%

