Initialize SIGNATURE TABLE
ST_SET: 1
ST_WAY: 256
ST_TAG_BIT: 16
ST_TAG_MASK: ffff

Initialize PATTERN TABLE
PT_SET: 512
PT_WAY: 4
SIG_DELTA_BIT: 7
C_SIG_BIT: 4
C_DELTA_BIT: 4

Initialize PREFETCH FILTER
FILTER_SET: 1024

*** ChampSim Multicore Out-of-Order Simulator ***

Warmup Instructions: 50000000
Simulation Instructions: 50000000
Number of CPUs: 1
LLC sets: 2048
LLC ways: 16
Off-chip DRAM Size: 4096 MB Channels: 1 Width: 64-bit Data Rate: 3200 MT/s

CPU 0 runs /home/mbaradaran/ChampSim/dpc3_traces/server_032.champsimtrace.xz
CPU 0 L1D next line prefetcher
Heartbeat CPU 0 instructions: 10000002 cycles: 3537193 heartbeat IPC: 2.8271 cumulative IPC: 2.8271 (Simulation time: 0 hr 1 min 42 sec) 
Heartbeat CPU 0 instructions: 20000003 cycles: 7076475 heartbeat IPC: 2.82543 cumulative IPC: 2.82627 (Simulation time: 0 hr 3 min 14 sec) 
Heartbeat CPU 0 instructions: 30000000 cycles: 10614449 heartbeat IPC: 2.82648 cumulative IPC: 2.82634 (Simulation time: 0 hr 4 min 47 sec) 
Heartbeat CPU 0 instructions: 40000003 cycles: 14154075 heartbeat IPC: 2.82516 cumulative IPC: 2.82604 (Simulation time: 0 hr 6 min 24 sec) 
Heartbeat CPU 0 instructions: 50000000 cycles: 17692406 heartbeat IPC: 2.82619 cumulative IPC: 2.82607 (Simulation time: 0 hr 8 min 15 sec) 

Warmup complete CPU 0 instructions: 50000004 cycles: 17692407 (Simulation time: 0 hr 8 min 15 sec) 

Heartbeat CPU 0 instructions: 60000002 cycles: 29280252 heartbeat IPC: 0.862973 cumulative IPC: 0.862973 (Simulation time: 0 hr 9 min 29 sec) 
Heartbeat CPU 0 instructions: 70000001 cycles: 40870072 heartbeat IPC: 0.862826 cumulative IPC: 0.8629 (Simulation time: 0 hr 10 min 44 sec) 
*** Reached end of trace for Core: 0 Repeating trace: /home/mbaradaran/ChampSim/dpc3_traces/server_032.champsimtrace.xz
Heartbeat CPU 0 instructions: 80000003 cycles: 52458943 heartbeat IPC: 0.862897 cumulative IPC: 0.862899 (Simulation time: 0 hr 11 min 58 sec) 
Heartbeat CPU 0 instructions: 90000000 cycles: 64026230 heartbeat IPC: 0.864507 cumulative IPC: 0.8633 (Simulation time: 0 hr 13 min 8 sec) 
Heartbeat CPU 0 instructions: 100000001 cycles: 75611592 heartbeat IPC: 0.863158 cumulative IPC: 0.863272 (Simulation time: 0 hr 14 min 19 sec) 
Finished CPU 0 instructions: 50000002 cycles: 57919193 cumulative IPC: 0.863272 (Simulation time: 0 hr 14 min 19 sec) 

ChampSim completed all CPUs

Region of Interest Statistics

CPU 0 cumulative IPC: 0.863272 instructions: 50000002 cycles: 57919193

SHEET
IPC : 0.863272

L1D TOTAL     ACCESS:   23266775  HIT:   21433939  MISS:    1832836
L1D LOAD      ACCESS:    8428250  HIT:    7647505  MISS:     780745
L1D RFO       ACCESS:    6657390  HIT:    6361297  MISS:     296093
L1D PREFETCH  ACCESS:    8181135  HIT:    7425137  MISS:     755998
L1D WRITEBACK ACCESS:          0  HIT:          0  MISS:          0
L1D PREFETCH  REQUESTED:    8480213  ISSUED:    8372322  USEFUL:     184089  USELESS:     571908
L1D AVERAGE MISS LATENCY: 18.7898 cycles
L1D

SHEET
L1D-total_access : 23266775
L1D-total_hit : 21433939
L1D-total_miss : 1832836
L1D-load_access : 8428250
L1D-load_hit : 7647505
L1D-load_miss : 780745
L1D-rfo_access : 6657390
L1D-rfo_hit : 6361297
L1D-rfo_miss : 296093
L1D-prefetch_access : 8181135
L1D-prefetch_hit : 7425137
L1D-prefetch_miss : 755998
L1D-writeback_access : 0
L1D-writeback_hit : 0
L1D-writeback_miss : 0
L1D-prefetch_requested : 8480213
L1D-prefetch_issued : 8372322
L1D-prefetch_useful : 184089
L1D-prefetch_useless : 571908
L1D-Avg_miss_latency : 18.7898

L1I TOTAL     ACCESS:    9535133  HIT:    5928605  MISS:    3606528
L1I LOAD      ACCESS:    9535133  HIT:    5928605  MISS:    3606528
L1I RFO       ACCESS:          0  HIT:          0  MISS:          0
L1I PREFETCH  ACCESS:          0  HIT:          0  MISS:          0
L1I WRITEBACK ACCESS:          0  HIT:          0  MISS:          0
L1I PREFETCH  REQUESTED:          0  ISSUED:          0  USEFUL:          0  USELESS:          0
L1I AVERAGE MISS LATENCY: 16.8083 cycles
L1I

SHEET
L1I-total_access : 9535133
L1I-total_hit : 5928605
L1I-total_miss : 3606528
L1I-load_access : 9535133
L1I-load_hit : 5928605
L1I-load_miss : 3606528
L1I-rfo_access : 0
L1I-rfo_hit : 0
L1I-rfo_miss : 0
L1I-prefetch_access : 0
L1I-prefetch_hit : 0
L1I-prefetch_miss : 0
L1I-writeback_access : 0
L1I-writeback_hit : 0
L1I-writeback_miss : 0
L1I-prefetch_requested : 0
L1I-prefetch_issued : 0
L1I-prefetch_useful : 0
L1I-prefetch_useless : 0
L1I-Avg_miss_latency : 16.8083

L2C TOTAL     ACCESS:    9119101  HIT:    8527349  MISS:     591752
L2C LOAD      ACCESS:    4358161  HIT:    3943249  MISS:     414912
L2C RFO       ACCESS:     292511  HIT:     244948  MISS:      47563
L2C PREFETCH  ACCESS:    3832096  HIT:    3712153  MISS:     119943
L2C WRITEBACK ACCESS:     636333  HIT:     626999  MISS:       9334
L2C PREFETCH  REQUESTED:    5683766  ISSUED:    5683645  USEFUL:       5729  USELESS:     114277
L2C AVERAGE MISS LATENCY: 30.0364 cycles
L2C

SHEET
L2C-total_access : 9119101
L2C-total_hit : 8527349
L2C-total_miss : 591752
L2C-load_access : 4358161
L2C-load_hit : 3943249
L2C-load_miss : 414912
L2C-rfo_access : 292511
L2C-rfo_hit : 244948
L2C-rfo_miss : 47563
L2C-prefetch_access : 3832096
L2C-prefetch_hit : 3712153
L2C-prefetch_miss : 119943
L2C-writeback_access : 636333
L2C-writeback_hit : 626999
L2C-writeback_miss : 9334
L2C-prefetch_requested : 5683766
L2C-prefetch_issued : 5683645
L2C-prefetch_useful : 5729
L2C-prefetch_useless : 114277
L2C-Avg_miss_latency : 30.0364

LLC TOTAL     ACCESS:    2450364  HIT:    2445477  MISS:       4887
LLC LOAD      ACCESS:     413238  HIT:     412751  MISS:        487
LLC RFO       ACCESS:      47563  HIT:      47563  MISS:          0
LLC PREFETCH  ACCESS:    1897229  HIT:    1892842  MISS:       4387
LLC WRITEBACK ACCESS:      92334  HIT:      92321  MISS:         13
LLC PREFETCH  REQUESTED:          0  ISSUED:          0  USEFUL:        364  USELESS:       1380
LLC AVERAGE MISS LATENCY: 143.592 cycles
LLC

SHEET
LLC-total_access : 2450364
LLC-total_hit : 2445477
LLC-total_miss : 4887
LLC-load_access : 413238
LLC-load_hit : 412751
LLC-load_miss : 487
LLC-rfo_access : 47563
LLC-rfo_hit : 47563
LLC-rfo_miss : 0
LLC-prefetch_access : 1897229
LLC-prefetch_hit : 1892842
LLC-prefetch_miss : 4387
LLC-writeback_access : 92334
LLC-writeback_hit : 92321
LLC-writeback_miss : 13
LLC-prefetch_requested : 0
LLC-prefetch_issued : 0
LLC-prefetch_useful : 364
LLC-prefetch_useless : 1380
LLC-Avg_miss_latency : 143.592

Major fault: 0 Minor fault: 1178
CPU 0 L1D next line prefetcher final stats

DRAM Statistics
 CHANNEL 0
 RQ ROW_BUFFER_HIT:       1459  ROW_BUFFER_MISS:       3415
 DBUS_CONGESTED:        618
 WQ ROW_BUFFER_HIT:          0  ROW_BUFFER_MISS:         12  FULL:          0

 AVG_CONGESTED_CYCLE: 4

CPU 0 Branch Prediction Accuracy: 99.8762% MPKI: 0.2296 Average ROB Occupancy at Mispredict: 78.0295

Branch types
NOT_BRANCH: 40725940 81.4519%
BRANCH_DIRECT_JUMP: 508368 1.01674%
BRANCH_INDIRECT: 180051 0.360102%
BRANCH_CONDITIONAL: 5999625 11.9992%
BRANCH_DIRECT_CALL: 1086730 2.17346%
BRANCH_INDIRECT_CALL: 206109 0.412218%
BRANCH_RETURN: 1292826 2.58565%
BRANCH_OTHER: 0 0%

