Initialize SIGNATURE TABLE
ST_SET: 1
ST_WAY: 256
ST_TAG_BIT: 16
ST_TAG_MASK: ffff

Initialize PATTERN TABLE
PT_SET: 512
PT_WAY: 4
SIG_DELTA_BIT: 7
C_SIG_BIT: 4
C_DELTA_BIT: 4

Initialize PREFETCH FILTER
FILTER_SET: 1024

*** ChampSim Multicore Out-of-Order Simulator ***

Warmup Instructions: 50000000
Simulation Instructions: 50000000
Number of CPUs: 1
LLC sets: 2048
LLC ways: 16
Off-chip DRAM Size: 4096 MB Channels: 1 Width: 64-bit Data Rate: 3200 MT/s

CPU 0 runs /home/mbaradaran/ChampSim/dpc3_traces/server_017.champsimtrace.xz
CPU 0 L1D next line prefetcher
Heartbeat CPU 0 instructions: 10000001 cycles: 3636426 heartbeat IPC: 2.74995 cumulative IPC: 2.74995 (Simulation time: 0 hr 1 min 41 sec) 
Heartbeat CPU 0 instructions: 20000000 cycles: 7269894 heartbeat IPC: 2.75219 cumulative IPC: 2.75107 (Simulation time: 0 hr 3 min 31 sec) 
Heartbeat CPU 0 instructions: 30000002 cycles: 10910748 heartbeat IPC: 2.74661 cumulative IPC: 2.74958 (Simulation time: 0 hr 5 min 10 sec) 
Heartbeat CPU 0 instructions: 40000000 cycles: 14546488 heartbeat IPC: 2.75047 cumulative IPC: 2.7498 (Simulation time: 0 hr 6 min 56 sec) 
Heartbeat CPU 0 instructions: 50000001 cycles: 18192702 heartbeat IPC: 2.74257 cumulative IPC: 2.74835 (Simulation time: 0 hr 8 min 35 sec) 

Warmup complete CPU 0 instructions: 50000001 cycles: 18192702 (Simulation time: 0 hr 8 min 35 sec) 

Heartbeat CPU 0 instructions: 60000002 cycles: 37739874 heartbeat IPC: 0.511583 cumulative IPC: 0.511583 (Simulation time: 0 hr 10 min 39 sec) 
Heartbeat CPU 0 instructions: 70000000 cycles: 57506281 heartbeat IPC: 0.505909 cumulative IPC: 0.50873 (Simulation time: 0 hr 12 min 55 sec) 
Heartbeat CPU 0 instructions: 80000000 cycles: 76971704 heartbeat IPC: 0.513731 cumulative IPC: 0.510386 (Simulation time: 0 hr 15 min 0 sec) 
Heartbeat CPU 0 instructions: 90000002 cycles: 101628226 heartbeat IPC: 0.405572 cumulative IPC: 0.479412 (Simulation time: 0 hr 17 min 8 sec) 
Heartbeat CPU 0 instructions: 100000003 cycles: 123443432 heartbeat IPC: 0.458396 cumulative IPC: 0.475056 (Simulation time: 0 hr 19 min 19 sec) 
Finished CPU 0 instructions: 50000002 cycles: 105250730 cumulative IPC: 0.475056 (Simulation time: 0 hr 19 min 19 sec) 

ChampSim completed all CPUs

Region of Interest Statistics

CPU 0 cumulative IPC: 0.475056 instructions: 50000002 cycles: 105250730

SHEET
IPC : 0.475056

L1D TOTAL     ACCESS:   19807638  HIT:   17641890  MISS:    2165748
L1D LOAD      ACCESS:    7719801  HIT:    6977879  MISS:     741922
L1D RFO       ACCESS:    5545674  HIT:    4686350  MISS:     859324
L1D PREFETCH  ACCESS:    6542163  HIT:    5977661  MISS:     564502
L1D WRITEBACK ACCESS:          0  HIT:          0  MISS:          0
L1D PREFETCH  REQUESTED:    7763406  ISSUED:    7589125  USEFUL:     201814  USELESS:     362749
L1D AVERAGE MISS LATENCY: 170.044 cycles
L1D

SHEET
L1D-total_access : 19807638
L1D-total_hit : 17641890
L1D-total_miss : 2165748
L1D-load_access : 7719801
L1D-load_hit : 6977879
L1D-load_miss : 741922
L1D-rfo_access : 5545674
L1D-rfo_hit : 4686350
L1D-rfo_miss : 859324
L1D-prefetch_access : 6542163
L1D-prefetch_hit : 5977661
L1D-prefetch_miss : 564502
L1D-writeback_access : 0
L1D-writeback_hit : 0
L1D-writeback_miss : 0
L1D-prefetch_requested : 7763406
L1D-prefetch_issued : 7589125
L1D-prefetch_useful : 201814
L1D-prefetch_useless : 362749
L1D-Avg_miss_latency : 170.044

L1I TOTAL     ACCESS:    9733313  HIT:    6927282  MISS:    2806031
L1I LOAD      ACCESS:    9733313  HIT:    6927282  MISS:    2806031
L1I RFO       ACCESS:          0  HIT:          0  MISS:          0
L1I PREFETCH  ACCESS:          0  HIT:          0  MISS:          0
L1I WRITEBACK ACCESS:          0  HIT:          0  MISS:          0
L1I PREFETCH  REQUESTED:          0  ISSUED:          0  USEFUL:          0  USELESS:          0
L1I AVERAGE MISS LATENCY: 16.995 cycles
L1I

SHEET
L1I-total_access : 9733313
L1I-total_hit : 6927282
L1I-total_miss : 2806031
L1I-load_access : 9733313
L1I-load_hit : 6927282
L1I-load_miss : 2806031
L1I-rfo_access : 0
L1I-rfo_hit : 0
L1I-rfo_miss : 0
L1I-prefetch_access : 0
L1I-prefetch_hit : 0
L1I-prefetch_miss : 0
L1I-writeback_access : 0
L1I-writeback_hit : 0
L1I-writeback_miss : 0
L1I-prefetch_requested : 0
L1I-prefetch_issued : 0
L1I-prefetch_useful : 0
L1I-prefetch_useless : 0
L1I-Avg_miss_latency : 16.995

L2C TOTAL     ACCESS:    8771656  HIT:    6935327  MISS:    1836329
L2C LOAD      ACCESS:    3345369  HIT:    2913540  MISS:     431829
L2C RFO       ACCESS:     858799  HIT:      17332  MISS:     841467
L2C PREFETCH  ACCESS:    3444744  HIT:    2883592  MISS:     561152
L2C WRITEBACK ACCESS:    1122744  HIT:    1120863  MISS:       1881
L2C PREFETCH  REQUESTED:    4999830  ISSUED:    4997286  USEFUL:      21915  USELESS:     539191
L2C AVERAGE MISS LATENCY: 201.39 cycles
L2C

SHEET
L2C-total_access : 8771656
L2C-total_hit : 6935327
L2C-total_miss : 1836329
L2C-load_access : 3345369
L2C-load_hit : 2913540
L2C-load_miss : 431829
L2C-rfo_access : 858799
L2C-rfo_hit : 17332
L2C-rfo_miss : 841467
L2C-prefetch_access : 3444744
L2C-prefetch_hit : 2883592
L2C-prefetch_miss : 561152
L2C-writeback_access : 1122744
L2C-writeback_hit : 1120863
L2C-writeback_miss : 1881
L2C-prefetch_requested : 4999830
L2C-prefetch_issued : 4997286
L2C-prefetch_useful : 21915
L2C-prefetch_useless : 539191
L2C-Avg_miss_latency : 201.39

LLC TOTAL     ACCESS:    4333404  HIT:    2759358  MISS:    1574046
LLC LOAD      ACCESS:     431525  HIT:     257217  MISS:     174308
LLC RFO       ACCESS:     841467  HIT:     122806  MISS:     718661
LLC PREFETCH  ACCESS:    1998882  HIT:    1320183  MISS:     678699
LLC WRITEBACK ACCESS:    1061530  HIT:    1059152  MISS:       2378
LLC PREFETCH  REQUESTED:          0  ISSUED:          0  USEFUL:      55287  USELESS:     623363
LLC AVERAGE MISS LATENCY: 254.391 cycles
LLC

SHEET
LLC-total_access : 4333404
LLC-total_hit : 2759358
LLC-total_miss : 1574046
LLC-load_access : 431525
LLC-load_hit : 257217
LLC-load_miss : 174308
LLC-rfo_access : 841467
LLC-rfo_hit : 122806
LLC-rfo_miss : 718661
LLC-prefetch_access : 1998882
LLC-prefetch_hit : 1320183
LLC-prefetch_miss : 678699
LLC-writeback_access : 1061530
LLC-writeback_hit : 1059152
LLC-writeback_miss : 2378
LLC-prefetch_requested : 0
LLC-prefetch_issued : 0
LLC-prefetch_useful : 55287
LLC-prefetch_useless : 623363
LLC-Avg_miss_latency : 254.391

Major fault: 0 Minor fault: 24694
CPU 0 L1D next line prefetcher final stats

DRAM Statistics
 CHANNEL 0
 RQ ROW_BUFFER_HIT:     386248  ROW_BUFFER_MISS:    1185303
 DBUS_CONGESTED:    1492393
 WQ ROW_BUFFER_HIT:     238177  ROW_BUFFER_MISS:     638759  FULL:          0

 AVG_CONGESTED_CYCLE: 6

CPU 0 Branch Prediction Accuracy: 99.2833% MPKI: 1.20568 Average ROB Occupancy at Mispredict: 164.001

Branch types
NOT_BRANCH: 41588346 83.1767%
BRANCH_DIRECT_JUMP: 464501 0.929002%
BRANCH_INDIRECT: 45704 0.091408%
BRANCH_CONDITIONAL: 6147408 12.2948%
BRANCH_DIRECT_CALL: 675450 1.3509%
BRANCH_INDIRECT_CALL: 201532 0.403064%
BRANCH_RETURN: 876985 1.75397%
BRANCH_OTHER: 0 0%

