Initialize SIGNATURE TABLE
ST_SET: 1
ST_WAY: 256
ST_TAG_BIT: 16
ST_TAG_MASK: ffff

Initialize PATTERN TABLE
PT_SET: 512
PT_WAY: 4
SIG_DELTA_BIT: 7
C_SIG_BIT: 4
C_DELTA_BIT: 4

Initialize PREFETCH FILTER
FILTER_SET: 1024

*** ChampSim Multicore Out-of-Order Simulator ***

Warmup Instructions: 50000000
Simulation Instructions: 50000000
Number of CPUs: 1
LLC sets: 2048
LLC ways: 16
Off-chip DRAM Size: 4096 MB Channels: 1 Width: 64-bit Data Rate: 3200 MT/s

CPU 0 runs /home/mbaradaran/ChampSim/dpc3_traces/server_003.champsimtrace.xz
CPU 0 L1D next line prefetcher
Heartbeat CPU 0 instructions: 10000002 cycles: 3225986 heartbeat IPC: 3.09983 cumulative IPC: 3.09983 (Simulation time: 0 hr 1 min 38 sec) 
Heartbeat CPU 0 instructions: 20000000 cycles: 6546673 heartbeat IPC: 3.01142 cumulative IPC: 3.05499 (Simulation time: 0 hr 3 min 14 sec) 
Heartbeat CPU 0 instructions: 30000000 cycles: 9759429 heartbeat IPC: 3.11259 cumulative IPC: 3.07395 (Simulation time: 0 hr 4 min 54 sec) 
Heartbeat CPU 0 instructions: 40000001 cycles: 13177567 heartbeat IPC: 2.92557 cumulative IPC: 3.03546 (Simulation time: 0 hr 6 min 35 sec) 
Heartbeat CPU 0 instructions: 50000003 cycles: 16896667 heartbeat IPC: 2.68882 cumulative IPC: 2.95916 (Simulation time: 0 hr 8 min 23 sec) 

Warmup complete CPU 0 instructions: 50000003 cycles: 16896667 (Simulation time: 0 hr 8 min 23 sec) 

Heartbeat CPU 0 instructions: 60000000 cycles: 27685957 heartbeat IPC: 0.926845 cumulative IPC: 0.926845 (Simulation time: 0 hr 9 min 45 sec) 
Heartbeat CPU 0 instructions: 70000001 cycles: 38257179 heartbeat IPC: 0.945965 cumulative IPC: 0.936307 (Simulation time: 0 hr 11 min 3 sec) 
Heartbeat CPU 0 instructions: 80000000 cycles: 51878340 heartbeat IPC: 0.734152 cumulative IPC: 0.857592 (Simulation time: 0 hr 12 min 30 sec) 
Heartbeat CPU 0 instructions: 90000003 cycles: 65793377 heartbeat IPC: 0.718647 cumulative IPC: 0.818051 (Simulation time: 0 hr 13 min 54 sec) 
Heartbeat CPU 0 instructions: 100000003 cycles: 80281890 heartbeat IPC: 0.690202 cumulative IPC: 0.788827 (Simulation time: 0 hr 15 min 11 sec) 
Finished CPU 0 instructions: 50000000 cycles: 63385223 cumulative IPC: 0.788827 (Simulation time: 0 hr 15 min 11 sec) 

ChampSim completed all CPUs

Region of Interest Statistics

CPU 0 cumulative IPC: 0.788827 instructions: 50000000 cycles: 63385223

SHEET
IPC : 0.788827

L1D TOTAL     ACCESS:   20908969  HIT:   19767020  MISS:    1141949
L1D LOAD      ACCESS:    8279865  HIT:    7756413  MISS:     523452
L1D RFO       ACCESS:    4597129  HIT:    4479885  MISS:     117244
L1D PREFETCH  ACCESS:    8031975  HIT:    7530722  MISS:     501253
L1D WRITEBACK ACCESS:          0  HIT:          0  MISS:          0
L1D PREFETCH  REQUESTED:    8340980  ISSUED:    8247914  USEFUL:     162628  USELESS:     338584
L1D AVERAGE MISS LATENCY: 52.4417 cycles
L1D

SHEET
L1D-total_access : 20908969
L1D-total_hit : 19767020
L1D-total_miss : 1141949
L1D-load_access : 8279865
L1D-load_hit : 7756413
L1D-load_miss : 523452
L1D-rfo_access : 4597129
L1D-rfo_hit : 4479885
L1D-rfo_miss : 117244
L1D-prefetch_access : 8031975
L1D-prefetch_hit : 7530722
L1D-prefetch_miss : 501253
L1D-writeback_access : 0
L1D-writeback_hit : 0
L1D-writeback_miss : 0
L1D-prefetch_requested : 8340980
L1D-prefetch_issued : 8247914
L1D-prefetch_useful : 162628
L1D-prefetch_useless : 338584
L1D-Avg_miss_latency : 52.4417

L1I TOTAL     ACCESS:    9340723  HIT:    8066823  MISS:    1273900
L1I LOAD      ACCESS:    9340723  HIT:    8066823  MISS:    1273900
L1I RFO       ACCESS:          0  HIT:          0  MISS:          0
L1I PREFETCH  ACCESS:          0  HIT:          0  MISS:          0
L1I WRITEBACK ACCESS:          0  HIT:          0  MISS:          0
L1I PREFETCH  REQUESTED:          0  ISSUED:          0  USEFUL:          0  USELESS:          0
L1I AVERAGE MISS LATENCY: 29.8072 cycles
L1I

SHEET
L1I-total_access : 9340723
L1I-total_hit : 8066823
L1I-total_miss : 1273900
L1I-load_access : 9340723
L1I-load_hit : 8066823
L1I-load_miss : 1273900
L1I-rfo_access : 0
L1I-rfo_hit : 0
L1I-rfo_miss : 0
L1I-prefetch_access : 0
L1I-prefetch_hit : 0
L1I-prefetch_miss : 0
L1I-writeback_access : 0
L1I-writeback_hit : 0
L1I-writeback_miss : 0
L1I-prefetch_requested : 0
L1I-prefetch_issued : 0
L1I-prefetch_useful : 0
L1I-prefetch_useless : 0
L1I-Avg_miss_latency : 29.8072

L2C TOTAL     ACCESS:    3825449  HIT:    2916878  MISS:     908571
L2C LOAD      ACCESS:    1773680  HIT:    1202661  MISS:     571019
L2C RFO       ACCESS:     114493  HIT:      42509  MISS:      71984
L2C PREFETCH  ACCESS:    1652925  HIT:    1387948  MISS:     264977
L2C WRITEBACK ACCESS:     284351  HIT:     283760  MISS:        591
L2C PREFETCH  REQUESTED:    2919536  ISSUED:    2919314  USEFUL:      39448  USELESS:     225761
L2C AVERAGE MISS LATENCY: 70.5066 cycles
L2C

SHEET
L2C-total_access : 3825449
L2C-total_hit : 2916878
L2C-total_miss : 908571
L2C-load_access : 1773680
L2C-load_hit : 1202661
L2C-load_miss : 571019
L2C-rfo_access : 114493
L2C-rfo_hit : 42509
L2C-rfo_miss : 71984
L2C-prefetch_access : 1652925
L2C-prefetch_hit : 1387948
L2C-prefetch_miss : 264977
L2C-writeback_access : 284351
L2C-writeback_hit : 283760
L2C-writeback_miss : 591
L2C-prefetch_requested : 2919536
L2C-prefetch_issued : 2919314
L2C-prefetch_useful : 39448
L2C-prefetch_useless : 225761
L2C-Avg_miss_latency : 70.5066

LLC TOTAL     ACCESS:    2183581  HIT:    1791316  MISS:     392265
LLC LOAD      ACCESS:     555862  HIT:     445385  MISS:     110477
LLC RFO       ACCESS:      71983  HIT:      30893  MISS:      41090
LLC PREFETCH  ACCESS:    1395110  HIT:    1156348  MISS:     238762
LLC WRITEBACK ACCESS:     160626  HIT:     158690  MISS:       1936
LLC PREFETCH  REQUESTED:          0  ISSUED:          0  USEFUL:      64912  USELESS:     166802
LLC AVERAGE MISS LATENCY: 169.591 cycles
LLC

SHEET
LLC-total_access : 2183581
LLC-total_hit : 1791316
LLC-total_miss : 392265
LLC-load_access : 555862
LLC-load_hit : 445385
LLC-load_miss : 110477
LLC-rfo_access : 71983
LLC-rfo_hit : 30893
LLC-rfo_miss : 41090
LLC-prefetch_access : 1395110
LLC-prefetch_hit : 1156348
LLC-prefetch_miss : 238762
LLC-writeback_access : 160626
LLC-writeback_hit : 158690
LLC-writeback_miss : 1936
LLC-prefetch_requested : 0
LLC-prefetch_issued : 0
LLC-prefetch_useful : 64912
LLC-prefetch_useless : 166802
LLC-Avg_miss_latency : 169.591

Major fault: 0 Minor fault: 7768
CPU 0 L1D next line prefetcher final stats

DRAM Statistics
 CHANNEL 0
 RQ ROW_BUFFER_HIT:      88236  ROW_BUFFER_MISS:     302062
 DBUS_CONGESTED:     178749
 WQ ROW_BUFFER_HIT:      25527  ROW_BUFFER_MISS:      79311  FULL:          0

 AVG_CONGESTED_CYCLE: 5

CPU 0 Branch Prediction Accuracy: 95.439% MPKI: 9.02702 Average ROB Occupancy at Mispredict: 49.3997

Branch types
NOT_BRANCH: 40103949 80.2079%
BRANCH_DIRECT_JUMP: 497927 0.995854%
BRANCH_INDIRECT: 130586 0.261172%
BRANCH_CONDITIONAL: 7219001 14.438%
BRANCH_DIRECT_CALL: 625806 1.25161%
BRANCH_INDIRECT_CALL: 389785 0.77957%
BRANCH_RETURN: 1032744 2.06549%
BRANCH_OTHER: 0 0%

