Initialize SIGNATURE TABLE
ST_SET: 1
ST_WAY: 256
ST_TAG_BIT: 16
ST_TAG_MASK: ffff

Initialize PATTERN TABLE
PT_SET: 512
PT_WAY: 4
SIG_DELTA_BIT: 7
C_SIG_BIT: 4
C_DELTA_BIT: 4

Initialize PREFETCH FILTER
FILTER_SET: 1024

*** ChampSim Multicore Out-of-Order Simulator ***

Warmup Instructions: 50000000
Simulation Instructions: 50000000
Number of CPUs: 1
LLC sets: 2048
LLC ways: 16
Off-chip DRAM Size: 4096 MB Channels: 1 Width: 64-bit Data Rate: 3200 MT/s

CPU 0 runs /home/mbaradaran/ChampSim/dpc3_traces/server_027.champsimtrace.xz
CPU 0 L1D next line prefetcher
Heartbeat CPU 0 instructions: 10000001 cycles: 3536895 heartbeat IPC: 2.82734 cumulative IPC: 2.82734 (Simulation time: 0 hr 1 min 41 sec) 
Heartbeat CPU 0 instructions: 20000001 cycles: 7078584 heartbeat IPC: 2.82351 cumulative IPC: 2.82542 (Simulation time: 0 hr 3 min 28 sec) 
Heartbeat CPU 0 instructions: 30000002 cycles: 10615347 heartbeat IPC: 2.82744 cumulative IPC: 2.8261 (Simulation time: 0 hr 5 min 9 sec) 
Heartbeat CPU 0 instructions: 40000000 cycles: 14158176 heartbeat IPC: 2.8226 cumulative IPC: 2.82522 (Simulation time: 0 hr 6 min 51 sec) 
Heartbeat CPU 0 instructions: 50000000 cycles: 17695083 heartbeat IPC: 2.82733 cumulative IPC: 2.82564 (Simulation time: 0 hr 8 min 26 sec) 

Warmup complete CPU 0 instructions: 50000004 cycles: 17695084 (Simulation time: 0 hr 8 min 26 sec) 

Heartbeat CPU 0 instructions: 60000002 cycles: 29185761 heartbeat IPC: 0.870271 cumulative IPC: 0.870271 (Simulation time: 0 hr 9 min 39 sec) 
Heartbeat CPU 0 instructions: 70000003 cycles: 40586451 heartbeat IPC: 0.87714 cumulative IPC: 0.873692 (Simulation time: 0 hr 10 min 52 sec) 
Heartbeat CPU 0 instructions: 80000002 cycles: 52007496 heartbeat IPC: 0.875577 cumulative IPC: 0.874319 (Simulation time: 0 hr 11 min 59 sec) 
Heartbeat CPU 0 instructions: 90000000 cycles: 63496098 heartbeat IPC: 0.870428 cumulative IPC: 0.873343 (Simulation time: 0 hr 13 min 15 sec) 
Heartbeat CPU 0 instructions: 100000002 cycles: 74843608 heartbeat IPC: 0.881251 cumulative IPC: 0.874913 (Simulation time: 0 hr 14 min 34 sec) 
Finished CPU 0 instructions: 50000001 cycles: 57148525 cumulative IPC: 0.874913 (Simulation time: 0 hr 14 min 34 sec) 

ChampSim completed all CPUs

Region of Interest Statistics

CPU 0 cumulative IPC: 0.874913 instructions: 50000001 cycles: 57148525

SHEET
IPC : 0.874913

L1D TOTAL     ACCESS:   22902634  HIT:   21298224  MISS:    1604410
L1D LOAD      ACCESS:    8390943  HIT:    7715067  MISS:     675876
L1D RFO       ACCESS:    6386390  HIT:    6100510  MISS:     285880
L1D PREFETCH  ACCESS:    8125301  HIT:    7482647  MISS:     642654
L1D WRITEBACK ACCESS:          0  HIT:          0  MISS:          0
L1D PREFETCH  REQUESTED:    8440141  ISSUED:    8327299  USEFUL:     165684  USELESS:     476984
L1D AVERAGE MISS LATENCY: 22.7887 cycles
L1D

SHEET
L1D-total_access : 22902634
L1D-total_hit : 21298224
L1D-total_miss : 1604410
L1D-load_access : 8390943
L1D-load_hit : 7715067
L1D-load_miss : 675876
L1D-rfo_access : 6386390
L1D-rfo_hit : 6100510
L1D-rfo_miss : 285880
L1D-prefetch_access : 8125301
L1D-prefetch_hit : 7482647
L1D-prefetch_miss : 642654
L1D-writeback_access : 0
L1D-writeback_hit : 0
L1D-writeback_miss : 0
L1D-prefetch_requested : 8440141
L1D-prefetch_issued : 8327299
L1D-prefetch_useful : 165684
L1D-prefetch_useless : 476984
L1D-Avg_miss_latency : 22.7887

L1I TOTAL     ACCESS:    9306116  HIT:    6117606  MISS:    3188510
L1I LOAD      ACCESS:    9306116  HIT:    6117606  MISS:    3188510
L1I RFO       ACCESS:          0  HIT:          0  MISS:          0
L1I PREFETCH  ACCESS:          0  HIT:          0  MISS:          0
L1I WRITEBACK ACCESS:          0  HIT:          0  MISS:          0
L1I PREFETCH  REQUESTED:          0  ISSUED:          0  USEFUL:          0  USELESS:          0
L1I AVERAGE MISS LATENCY: 18.1392 cycles
L1I

SHEET
L1I-total_access : 9306116
L1I-total_hit : 6117606
L1I-total_miss : 3188510
L1I-load_access : 9306116
L1I-load_hit : 6117606
L1I-load_miss : 3188510
L1I-rfo_access : 0
L1I-rfo_hit : 0
L1I-rfo_miss : 0
L1I-prefetch_access : 0
L1I-prefetch_hit : 0
L1I-prefetch_miss : 0
L1I-writeback_access : 0
L1I-writeback_hit : 0
L1I-writeback_miss : 0
L1I-prefetch_requested : 0
L1I-prefetch_issued : 0
L1I-prefetch_useful : 0
L1I-prefetch_useless : 0
L1I-Avg_miss_latency : 18.1392

L2C TOTAL     ACCESS:    7958422  HIT:    7208422  MISS:     750000
L2C LOAD      ACCESS:    3820113  HIT:    3285033  MISS:     535080
L2C RFO       ACCESS:     283112  HIT:     200510  MISS:      82602
L2C PREFETCH  ACCESS:    3295779  HIT:    3166407  MISS:     129372
L2C WRITEBACK ACCESS:     559418  HIT:     556472  MISS:       2946
L2C PREFETCH  REQUESTED:    4917219  ISSUED:    4916757  USEFUL:      11122  USELESS:     118268
L2C AVERAGE MISS LATENCY: 35.8608 cycles
L2C

SHEET
L2C-total_access : 7958422
L2C-total_hit : 7208422
L2C-total_miss : 750000
L2C-load_access : 3820113
L2C-load_hit : 3285033
L2C-load_miss : 535080
L2C-rfo_access : 283112
L2C-rfo_hit : 200510
L2C-rfo_miss : 82602
L2C-prefetch_access : 3295779
L2C-prefetch_hit : 3166407
L2C-prefetch_miss : 129372
L2C-writeback_access : 559418
L2C-writeback_hit : 556472
L2C-writeback_miss : 2946
L2C-prefetch_requested : 4917219
L2C-prefetch_issued : 4916757
L2C-prefetch_useful : 11122
L2C-prefetch_useless : 118268
L2C-Avg_miss_latency : 35.8608

LLC TOTAL     ACCESS:    2413855  HIT:    2381923  MISS:      31932
LLC LOAD      ACCESS:     534473  HIT:     530238  MISS:       4235
LLC RFO       ACCESS:      82520  HIT:      68625  MISS:      13895
LLC PREFETCH  ACCESS:    1659759  HIT:    1646132  MISS:      13627
LLC WRITEBACK ACCESS:     137103  HIT:     136928  MISS:        175
LLC PREFETCH  REQUESTED:          0  ISSUED:          0  USEFUL:       1551  USELESS:      12178
LLC AVERAGE MISS LATENCY: 182.311 cycles
LLC

SHEET
LLC-total_access : 2413855
LLC-total_hit : 2381923
LLC-total_miss : 31932
LLC-load_access : 534473
LLC-load_hit : 530238
LLC-load_miss : 4235
LLC-rfo_access : 82520
LLC-rfo_hit : 68625
LLC-rfo_miss : 13895
LLC-prefetch_access : 1659759
LLC-prefetch_hit : 1646132
LLC-prefetch_miss : 13627
LLC-writeback_access : 137103
LLC-writeback_hit : 136928
LLC-writeback_miss : 175
LLC-prefetch_requested : 0
LLC-prefetch_issued : 0
LLC-prefetch_useful : 1551
LLC-prefetch_useless : 12178
LLC-Avg_miss_latency : 182.311

Major fault: 0 Minor fault: 2477
CPU 0 L1D next line prefetcher final stats

DRAM Statistics
 CHANNEL 0
 RQ ROW_BUFFER_HIT:      11006  ROW_BUFFER_MISS:      20750
 DBUS_CONGESTED:      22818
 WQ ROW_BUFFER_HIT:       1607  ROW_BUFFER_MISS:      14136  FULL:          0

 AVG_CONGESTED_CYCLE: 6

CPU 0 Branch Prediction Accuracy: 99.8082% MPKI: 0.35064 Average ROB Occupancy at Mispredict: 73.4445

Branch types
NOT_BRANCH: 40857210 81.7144%
BRANCH_DIRECT_JUMP: 526631 1.05326%
BRANCH_INDIRECT: 205902 0.411804%
BRANCH_CONDITIONAL: 6184012 12.368%
BRANCH_DIRECT_CALL: 938462 1.87692%
BRANCH_INDIRECT_CALL: 174486 0.348972%
BRANCH_RETURN: 1112951 2.2259%
BRANCH_OTHER: 0 0%

