Initialize SIGNATURE TABLE
ST_SET: 1
ST_WAY: 256
ST_TAG_BIT: 16
ST_TAG_MASK: ffff

Initialize PATTERN TABLE
PT_SET: 512
PT_WAY: 4
SIG_DELTA_BIT: 7
C_SIG_BIT: 4
C_DELTA_BIT: 4

Initialize PREFETCH FILTER
FILTER_SET: 1024

*** ChampSim Multicore Out-of-Order Simulator ***

Warmup Instructions: 50000000
Simulation Instructions: 50000000
Number of CPUs: 1
LLC sets: 2048
LLC ways: 16
Off-chip DRAM Size: 4096 MB Channels: 1 Width: 64-bit Data Rate: 3200 MT/s

CPU 0 runs /home/mbaradaran/ChampSim/dpc3_traces/server_019.champsimtrace.xz
CPU 0 L1D next line prefetcher
Heartbeat CPU 0 instructions: 10000002 cycles: 3636243 heartbeat IPC: 2.75009 cumulative IPC: 2.75009 (Simulation time: 0 hr 1 min 49 sec) 
Heartbeat CPU 0 instructions: 20000003 cycles: 7274180 heartbeat IPC: 2.74881 cumulative IPC: 2.74945 (Simulation time: 0 hr 3 min 29 sec) 
Heartbeat CPU 0 instructions: 30000002 cycles: 10909954 heartbeat IPC: 2.75045 cumulative IPC: 2.74978 (Simulation time: 0 hr 5 min 8 sec) 
Heartbeat CPU 0 instructions: 40000002 cycles: 14558140 heartbeat IPC: 2.74109 cumulative IPC: 2.7476 (Simulation time: 0 hr 6 min 59 sec) 
Heartbeat CPU 0 instructions: 50000001 cycles: 18195616 heartbeat IPC: 2.74916 cumulative IPC: 2.74791 (Simulation time: 0 hr 8 min 47 sec) 

Warmup complete CPU 0 instructions: 50000001 cycles: 18195616 (Simulation time: 0 hr 8 min 47 sec) 

Heartbeat CPU 0 instructions: 60000000 cycles: 39905268 heartbeat IPC: 0.460625 cumulative IPC: 0.460625 (Simulation time: 0 hr 11 min 5 sec) 
Heartbeat CPU 0 instructions: 70000002 cycles: 64549981 heartbeat IPC: 0.405767 cumulative IPC: 0.431459 (Simulation time: 0 hr 13 min 23 sec) 
Heartbeat CPU 0 instructions: 80000002 cycles: 86576504 heartbeat IPC: 0.453998 cumulative IPC: 0.438719 (Simulation time: 0 hr 15 min 38 sec) 
Heartbeat CPU 0 instructions: 90000000 cycles: 106017575 heartbeat IPC: 0.514375 cumulative IPC: 0.455467 (Simulation time: 0 hr 17 min 44 sec) 
Heartbeat CPU 0 instructions: 100000002 cycles: 125401137 heartbeat IPC: 0.515901 cumulative IPC: 0.466394 (Simulation time: 0 hr 19 min 53 sec) 
Finished CPU 0 instructions: 50000001 cycles: 107205521 cumulative IPC: 0.466394 (Simulation time: 0 hr 19 min 53 sec) 

ChampSim completed all CPUs

Region of Interest Statistics

CPU 0 cumulative IPC: 0.466394 instructions: 50000001 cycles: 107205521

SHEET
IPC : 0.466394

L1D TOTAL     ACCESS:   19621226  HIT:   17398004  MISS:    2223222
L1D LOAD      ACCESS:    7616120  HIT:    6867197  MISS:     748923
L1D RFO       ACCESS:    5536378  HIT:    4634333  MISS:     902045
L1D PREFETCH  ACCESS:    6468728  HIT:    5896474  MISS:     572254
L1D WRITEBACK ACCESS:          0  HIT:          0  MISS:          0
L1D PREFETCH  REQUESTED:    7660316  ISSUED:    7492117  USEFUL:     202825  USELESS:     369338
L1D AVERAGE MISS LATENCY: 180.869 cycles
L1D

SHEET
L1D-total_access : 19621226
L1D-total_hit : 17398004
L1D-total_miss : 2223222
L1D-load_access : 7616120
L1D-load_hit : 6867197
L1D-load_miss : 748923
L1D-rfo_access : 5536378
L1D-rfo_hit : 4634333
L1D-rfo_miss : 902045
L1D-prefetch_access : 6468728
L1D-prefetch_hit : 5896474
L1D-prefetch_miss : 572254
L1D-writeback_access : 0
L1D-writeback_hit : 0
L1D-writeback_miss : 0
L1D-prefetch_requested : 7660316
L1D-prefetch_issued : 7492117
L1D-prefetch_useful : 202825
L1D-prefetch_useless : 369338
L1D-Avg_miss_latency : 180.869

L1I TOTAL     ACCESS:    9703468  HIT:    6983059  MISS:    2720409
L1I LOAD      ACCESS:    9703468  HIT:    6983059  MISS:    2720409
L1I RFO       ACCESS:          0  HIT:          0  MISS:          0
L1I PREFETCH  ACCESS:          0  HIT:          0  MISS:          0
L1I WRITEBACK ACCESS:          0  HIT:          0  MISS:          0
L1I PREFETCH  REQUESTED:          0  ISSUED:          0  USEFUL:          0  USELESS:          0
L1I AVERAGE MISS LATENCY: 17.2891 cycles
L1I

SHEET
L1I-total_access : 9703468
L1I-total_hit : 6983059
L1I-total_miss : 2720409
L1I-load_access : 9703468
L1I-load_hit : 6983059
L1I-load_miss : 2720409
L1I-rfo_access : 0
L1I-rfo_hit : 0
L1I-rfo_miss : 0
L1I-prefetch_access : 0
L1I-prefetch_hit : 0
L1I-prefetch_miss : 0
L1I-writeback_access : 0
L1I-writeback_hit : 0
L1I-writeback_miss : 0
L1I-prefetch_requested : 0
L1I-prefetch_issued : 0
L1I-prefetch_useful : 0
L1I-prefetch_useless : 0
L1I-Avg_miss_latency : 17.2891

L2C TOTAL     ACCESS:    8708234  HIT:    6831141  MISS:    1877093
L2C LOAD      ACCESS:    3272932  HIT:    2835152  MISS:     437780
L2C RFO       ACCESS:     901594  HIT:      18185  MISS:     883409
L2C PREFETCH  ACCESS:    3359045  HIT:    2805491  MISS:     553554
L2C WRITEBACK ACCESS:    1174663  HIT:    1172313  MISS:       2350
L2C PREFETCH  REQUESTED:    5081190  ISSUED:    5076514  USEFUL:      22235  USELESS:     530660
L2C AVERAGE MISS LATENCY: 214.131 cycles
L2C

SHEET
L2C-total_access : 8708234
L2C-total_hit : 6831141
L2C-total_miss : 1877093
L2C-load_access : 3272932
L2C-load_hit : 2835152
L2C-load_miss : 437780
L2C-rfo_access : 901594
L2C-rfo_hit : 18185
L2C-rfo_miss : 883409
L2C-prefetch_access : 3359045
L2C-prefetch_hit : 2805491
L2C-prefetch_miss : 553554
L2C-writeback_access : 1174663
L2C-writeback_hit : 1172313
L2C-writeback_miss : 2350
L2C-prefetch_requested : 5081190
L2C-prefetch_issued : 5076514
L2C-prefetch_useful : 22235
L2C-prefetch_useless : 530660
L2C-Avg_miss_latency : 214.131

LLC TOTAL     ACCESS:    4466227  HIT:    2808016  MISS:    1658211
LLC LOAD      ACCESS:     437465  HIT:     256111  MISS:     181354
LLC RFO       ACCESS:     883407  HIT:     114420  MISS:     768987
LLC PREFETCH  ACCESS:    2034779  HIT:    1329591  MISS:     705188
LLC WRITEBACK ACCESS:    1110576  HIT:    1107894  MISS:       2682
LLC PREFETCH  REQUESTED:          0  ISSUED:          0  USEFUL:      61398  USELESS:     642846
LLC AVERAGE MISS LATENCY: 264.747 cycles
LLC

SHEET
LLC-total_access : 4466227
LLC-total_hit : 2808016
LLC-total_miss : 1658211
LLC-load_access : 437465
LLC-load_hit : 256111
LLC-load_miss : 181354
LLC-rfo_access : 883407
LLC-rfo_hit : 114420
LLC-rfo_miss : 768987
LLC-prefetch_access : 2034779
LLC-prefetch_hit : 1329591
LLC-prefetch_miss : 705188
LLC-writeback_access : 1110576
LLC-writeback_hit : 1107894
LLC-writeback_miss : 2682
LLC-prefetch_requested : 0
LLC-prefetch_issued : 0
LLC-prefetch_useful : 61398
LLC-prefetch_useless : 642846
LLC-Avg_miss_latency : 264.747

Major fault: 0 Minor fault: 25691
CPU 0 L1D next line prefetcher final stats

DRAM Statistics
 CHANNEL 0
 RQ ROW_BUFFER_HIT:     404641  ROW_BUFFER_MISS:    1250719
 DBUS_CONGESTED:    1616792
 WQ ROW_BUFFER_HIT:     250980  ROW_BUFFER_MISS:     685156  FULL:          0

 AVG_CONGESTED_CYCLE: 6

CPU 0 Branch Prediction Accuracy: 99.2186% MPKI: 1.3219 Average ROB Occupancy at Mispredict: 162.728

Branch types
NOT_BRANCH: 41540669 83.0813%
BRANCH_DIRECT_JUMP: 462381 0.924762%
BRANCH_INDIRECT: 45460 0.09092%
BRANCH_CONDITIONAL: 6209251 12.4185%
BRANCH_DIRECT_CALL: 666238 1.33248%
BRANCH_INDIRECT_CALL: 204728 0.409456%
BRANCH_RETURN: 870972 1.74194%
BRANCH_OTHER: 0 0%

