Initialize SIGNATURE TABLE
ST_SET: 1
ST_WAY: 256
ST_TAG_BIT: 16
ST_TAG_MASK: ffff

Initialize PATTERN TABLE
PT_SET: 512
PT_WAY: 4
SIG_DELTA_BIT: 7
C_SIG_BIT: 4
C_DELTA_BIT: 4

Initialize PREFETCH FILTER
FILTER_SET: 1024

*** ChampSim Multicore Out-of-Order Simulator ***

Warmup Instructions: 50000000
Simulation Instructions: 50000000
Number of CPUs: 1
LLC sets: 2048
LLC ways: 16
Off-chip DRAM Size: 4096 MB Channels: 1 Width: 64-bit Data Rate: 3200 MT/s

CPU 0 runs /home/mbaradaran/ChampSim/dpc3_traces/server_021.champsimtrace.xz
CPU 0 L1D next line prefetcher
Heartbeat CPU 0 instructions: 10000000 cycles: 3639238 heartbeat IPC: 2.74783 cumulative IPC: 2.74783 (Simulation time: 0 hr 1 min 40 sec) 
Heartbeat CPU 0 instructions: 20000000 cycles: 7272634 heartbeat IPC: 2.75225 cumulative IPC: 2.75004 (Simulation time: 0 hr 3 min 25 sec) 
Heartbeat CPU 0 instructions: 30000003 cycles: 10935937 heartbeat IPC: 2.72978 cumulative IPC: 2.74325 (Simulation time: 0 hr 5 min 19 sec) 
Heartbeat CPU 0 instructions: 40000001 cycles: 14562703 heartbeat IPC: 2.75728 cumulative IPC: 2.74674 (Simulation time: 0 hr 7 min 12 sec) 
Heartbeat CPU 0 instructions: 50000002 cycles: 18211489 heartbeat IPC: 2.74064 cumulative IPC: 2.74552 (Simulation time: 0 hr 8 min 54 sec) 

Warmup complete CPU 0 instructions: 50000002 cycles: 18211489 (Simulation time: 0 hr 8 min 54 sec) 

Heartbeat CPU 0 instructions: 60000001 cycles: 36877632 heartbeat IPC: 0.535729 cumulative IPC: 0.535729 (Simulation time: 0 hr 10 min 54 sec) 
Heartbeat CPU 0 instructions: 70000002 cycles: 55766588 heartbeat IPC: 0.52941 cumulative IPC: 0.532551 (Simulation time: 0 hr 13 min 8 sec) 
Heartbeat CPU 0 instructions: 80000001 cycles: 74550424 heartbeat IPC: 0.532373 cumulative IPC: 0.532491 (Simulation time: 0 hr 15 min 9 sec) 
Heartbeat CPU 0 instructions: 90000001 cycles: 93527831 heartbeat IPC: 0.526942 cumulative IPC: 0.531093 (Simulation time: 0 hr 17 min 9 sec) 
Heartbeat CPU 0 instructions: 100000002 cycles: 112334090 heartbeat IPC: 0.531738 cumulative IPC: 0.531222 (Simulation time: 0 hr 19 min 8 sec) 
Finished CPU 0 instructions: 50000000 cycles: 94122601 cumulative IPC: 0.531222 (Simulation time: 0 hr 19 min 8 sec) 

ChampSim completed all CPUs

Region of Interest Statistics

CPU 0 cumulative IPC: 0.531222 instructions: 50000000 cycles: 94122601

SHEET
IPC : 0.531222

L1D TOTAL     ACCESS:   20333640  HIT:   18130336  MISS:    2203304
L1D LOAD      ACCESS:    7844525  HIT:    7144220  MISS:     700305
L1D RFO       ACCESS:    5918034  HIT:    4942444  MISS:     975590
L1D PREFETCH  ACCESS:    6571081  HIT:    6043672  MISS:     527409
L1D WRITEBACK ACCESS:          0  HIT:          0  MISS:          0
L1D PREFETCH  REQUESTED:    7895516  ISSUED:    7709817  USEFUL:     205925  USELESS:     321477
L1D AVERAGE MISS LATENCY: 173.685 cycles
L1D

SHEET
L1D-total_access : 20333640
L1D-total_hit : 18130336
L1D-total_miss : 2203304
L1D-load_access : 7844525
L1D-load_hit : 7144220
L1D-load_miss : 700305
L1D-rfo_access : 5918034
L1D-rfo_hit : 4942444
L1D-rfo_miss : 975590
L1D-prefetch_access : 6571081
L1D-prefetch_hit : 6043672
L1D-prefetch_miss : 527409
L1D-writeback_access : 0
L1D-writeback_hit : 0
L1D-writeback_miss : 0
L1D-prefetch_requested : 7895516
L1D-prefetch_issued : 7709817
L1D-prefetch_useful : 205925
L1D-prefetch_useless : 321477
L1D-Avg_miss_latency : 173.685

L1I TOTAL     ACCESS:    9945220  HIT:    6781209  MISS:    3164011
L1I LOAD      ACCESS:    9945220  HIT:    6781209  MISS:    3164011
L1I RFO       ACCESS:          0  HIT:          0  MISS:          0
L1I PREFETCH  ACCESS:          0  HIT:          0  MISS:          0
L1I WRITEBACK ACCESS:          0  HIT:          0  MISS:          0
L1I PREFETCH  REQUESTED:          0  ISSUED:          0  USEFUL:          0  USELESS:          0
L1I AVERAGE MISS LATENCY: 16.4535 cycles
L1I

SHEET
L1I-total_access : 9945220
L1I-total_hit : 6781209
L1I-total_miss : 3164011
L1I-load_access : 9945220
L1I-load_hit : 6781209
L1I-load_miss : 3164011
L1I-rfo_access : 0
L1I-rfo_hit : 0
L1I-rfo_miss : 0
L1I-prefetch_access : 0
L1I-prefetch_hit : 0
L1I-prefetch_miss : 0
L1I-writeback_access : 0
L1I-writeback_hit : 0
L1I-writeback_miss : 0
L1I-prefetch_requested : 0
L1I-prefetch_issued : 0
L1I-prefetch_useful : 0
L1I-prefetch_useless : 0
L1I-Avg_miss_latency : 16.4535

L2C TOTAL     ACCESS:    9561722  HIT:    7711435  MISS:    1850287
L2C LOAD      ACCESS:    3636569  HIT:    3272945  MISS:     363624
L2C RFO       ACCESS:     975112  HIT:      22043  MISS:     953069
L2C PREFETCH  ACCESS:    3770265  HIT:    3239315  MISS:     530950
L2C WRITEBACK ACCESS:    1179776  HIT:    1177132  MISS:       2644
L2C PREFETCH  REQUESTED:    5363539  ISSUED:    5358999  USEFUL:      21239  USELESS:     509700
L2C AVERAGE MISS LATENCY: 209.466 cycles
L2C

SHEET
L2C-total_access : 9561722
L2C-total_hit : 7711435
L2C-total_miss : 1850287
L2C-load_access : 3636569
L2C-load_hit : 3272945
L2C-load_miss : 363624
L2C-rfo_access : 975112
L2C-rfo_hit : 22043
L2C-rfo_miss : 953069
L2C-prefetch_access : 3770265
L2C-prefetch_hit : 3239315
L2C-prefetch_miss : 530950
L2C-writeback_access : 1179776
L2C-writeback_hit : 1177132
L2C-writeback_miss : 2644
L2C-prefetch_requested : 5363539
L2C-prefetch_issued : 5358999
L2C-prefetch_useful : 21239
L2C-prefetch_useless : 509700
L2C-Avg_miss_latency : 209.466

LLC TOTAL     ACCESS:    4323877  HIT:    2931422  MISS:    1392455
LLC LOAD      ACCESS:     363190  HIT:     273728  MISS:      89462
LLC RFO       ACCESS:     953068  HIT:     142280  MISS:     810788
LLC PREFETCH  ACCESS:    1895458  HIT:    1405304  MISS:     490154
LLC WRITEBACK ACCESS:    1112161  HIT:    1110110  MISS:       2051
LLC PREFETCH  REQUESTED:          0  ISSUED:          0  USEFUL:      34017  USELESS:     455258
LLC AVERAGE MISS LATENCY: 281.6 cycles
LLC

SHEET
LLC-total_access : 4323877
LLC-total_hit : 2931422
LLC-total_miss : 1392455
LLC-load_access : 363190
LLC-load_hit : 273728
LLC-load_miss : 89462
LLC-rfo_access : 953068
LLC-rfo_hit : 142280
LLC-rfo_miss : 810788
LLC-prefetch_access : 1895458
LLC-prefetch_hit : 1405304
LLC-prefetch_miss : 490154
LLC-writeback_access : 1112161
LLC-writeback_hit : 1110110
LLC-writeback_miss : 2051
LLC-prefetch_requested : 0
LLC-prefetch_issued : 0
LLC-prefetch_useful : 34017
LLC-prefetch_useless : 455258
LLC-Avg_miss_latency : 281.6

Major fault: 0 Minor fault: 22289
CPU 0 L1D next line prefetcher final stats

DRAM Statistics
 CHANNEL 0
 RQ ROW_BUFFER_HIT:     411880  ROW_BUFFER_MISS:     978309
 DBUS_CONGESTED:    1407426
 WQ ROW_BUFFER_HIT:     243240  ROW_BUFFER_MISS:     653485  FULL:          0

 AVG_CONGESTED_CYCLE: 6

CPU 0 Branch Prediction Accuracy: 99.8303% MPKI: 0.27836 Average ROB Occupancy at Mispredict: 150.82

Branch types
NOT_BRANCH: 41798459 83.5969%
BRANCH_DIRECT_JUMP: 445214 0.890428%
BRANCH_INDIRECT: 50481 0.100962%
BRANCH_CONDITIONAL: 5868231 11.7365%
BRANCH_DIRECT_CALL: 758224 1.51645%
BRANCH_INDIRECT_CALL: 160493 0.320986%
BRANCH_RETURN: 918716 1.83743%
BRANCH_OTHER: 0 0%

