Initialize SIGNATURE TABLE
ST_SET: 1
ST_WAY: 256
ST_TAG_BIT: 16
ST_TAG_MASK: ffff

Initialize PATTERN TABLE
PT_SET: 512
PT_WAY: 4
SIG_DELTA_BIT: 7
C_SIG_BIT: 4
C_DELTA_BIT: 4

Initialize PREFETCH FILTER
FILTER_SET: 1024

*** ChampSim Multicore Out-of-Order Simulator ***

Warmup Instructions: 50000000
Simulation Instructions: 50000000
Number of CPUs: 1
LLC sets: 2048
LLC ways: 16
Off-chip DRAM Size: 4096 MB Channels: 1 Width: 64-bit Data Rate: 3200 MT/s

CPU 0 runs /home/mbaradaran/ChampSim/dpc3_traces/server_018.champsimtrace.xz
CPU 0 L1D next line prefetcher
Heartbeat CPU 0 instructions: 10000003 cycles: 3631542 heartbeat IPC: 2.75365 cumulative IPC: 2.75365 (Simulation time: 0 hr 1 min 48 sec) 
Heartbeat CPU 0 instructions: 20000001 cycles: 7267695 heartbeat IPC: 2.75016 cumulative IPC: 2.7519 (Simulation time: 0 hr 3 min 37 sec) 
Heartbeat CPU 0 instructions: 30000003 cycles: 10752739 heartbeat IPC: 2.8694 cumulative IPC: 2.78999 (Simulation time: 0 hr 5 min 18 sec) 
Heartbeat CPU 0 instructions: 40000000 cycles: 14276277 heartbeat IPC: 2.83806 cumulative IPC: 2.80185 (Simulation time: 0 hr 7 min 1 sec) 
Heartbeat CPU 0 instructions: 50000003 cycles: 17907956 heartbeat IPC: 2.75355 cumulative IPC: 2.79206 (Simulation time: 0 hr 8 min 42 sec) 

Warmup complete CPU 0 instructions: 50000003 cycles: 17907956 (Simulation time: 0 hr 8 min 42 sec) 

Heartbeat CPU 0 instructions: 60000000 cycles: 37289918 heartbeat IPC: 0.515943 cumulative IPC: 0.515943 (Simulation time: 0 hr 10 min 42 sec) 
Heartbeat CPU 0 instructions: 70000001 cycles: 56724122 heartbeat IPC: 0.514557 cumulative IPC: 0.515249 (Simulation time: 0 hr 12 min 42 sec) 
Heartbeat CPU 0 instructions: 80000000 cycles: 76109414 heartbeat IPC: 0.515855 cumulative IPC: 0.515451 (Simulation time: 0 hr 14 min 53 sec) 
Heartbeat CPU 0 instructions: 90000000 cycles: 95478821 heartbeat IPC: 0.516278 cumulative IPC: 0.515657 (Simulation time: 0 hr 16 min 59 sec) 
Heartbeat CPU 0 instructions: 100000001 cycles: 114848821 heartbeat IPC: 0.516262 cumulative IPC: 0.515778 (Simulation time: 0 hr 18 min 51 sec) 
Finished CPU 0 instructions: 50000002 cycles: 96940866 cumulative IPC: 0.515778 (Simulation time: 0 hr 18 min 51 sec) 

ChampSim completed all CPUs

Region of Interest Statistics

CPU 0 cumulative IPC: 0.515778 instructions: 50000002 cycles: 96940866

SHEET
IPC : 0.515778

L1D TOTAL     ACCESS:   20137753  HIT:   17920143  MISS:    2217610
L1D LOAD      ACCESS:    7777335  HIT:    7056807  MISS:     720528
L1D RFO       ACCESS:    5839146  HIT:    4886794  MISS:     952352
L1D PREFETCH  ACCESS:    6521272  HIT:    5976542  MISS:     544730
L1D WRITEBACK ACCESS:          0  HIT:          0  MISS:          0
L1D PREFETCH  REQUESTED:    7827707  ISSUED:    7643340  USEFUL:     204721  USELESS:     340098
L1D AVERAGE MISS LATENCY: 170.097 cycles
L1D

SHEET
L1D-total_access : 20137753
L1D-total_hit : 17920143
L1D-total_miss : 2217610
L1D-load_access : 7777335
L1D-load_hit : 7056807
L1D-load_miss : 720528
L1D-rfo_access : 5839146
L1D-rfo_hit : 4886794
L1D-rfo_miss : 952352
L1D-prefetch_access : 6521272
L1D-prefetch_hit : 5976542
L1D-prefetch_miss : 544730
L1D-writeback_access : 0
L1D-writeback_hit : 0
L1D-writeback_miss : 0
L1D-prefetch_requested : 7827707
L1D-prefetch_issued : 7643340
L1D-prefetch_useful : 204721
L1D-prefetch_useless : 340098
L1D-Avg_miss_latency : 170.097

L1I TOTAL     ACCESS:    9915833  HIT:    6815221  MISS:    3100612
L1I LOAD      ACCESS:    9915833  HIT:    6815221  MISS:    3100612
L1I RFO       ACCESS:          0  HIT:          0  MISS:          0
L1I PREFETCH  ACCESS:          0  HIT:          0  MISS:          0
L1I WRITEBACK ACCESS:          0  HIT:          0  MISS:          0
L1I PREFETCH  REQUESTED:          0  ISSUED:          0  USEFUL:          0  USELESS:          0
L1I AVERAGE MISS LATENCY: 16.5949 cycles
L1I

SHEET
L1I-total_access : 9915833
L1I-total_hit : 6815221
L1I-total_miss : 3100612
L1I-load_access : 9915833
L1I-load_hit : 6815221
L1I-load_miss : 3100612
L1I-rfo_access : 0
L1I-rfo_hit : 0
L1I-rfo_miss : 0
L1I-prefetch_access : 0
L1I-prefetch_hit : 0
L1I-prefetch_miss : 0
L1I-writeback_access : 0
L1I-writeback_hit : 0
L1I-writeback_miss : 0
L1I-prefetch_requested : 0
L1I-prefetch_issued : 0
L1I-prefetch_useful : 0
L1I-prefetch_useless : 0
L1I-Avg_miss_latency : 16.5949

L2C TOTAL     ACCESS:    9469948  HIT:    7621610  MISS:    1848338
L2C LOAD      ACCESS:    3598923  HIT:    3220385  MISS:     378538
L2C RFO       ACCESS:     951792  HIT:      19934  MISS:     931858
L2C PREFETCH  ACCESS:    3749257  HIT:    3213939  MISS:     535318
L2C WRITEBACK ACCESS:    1169976  HIT:    1167352  MISS:       2624
L2C PREFETCH  REQUESTED:    5321295  ISSUED:    5318439  USEFUL:      22936  USELESS:     512751
L2C AVERAGE MISS LATENCY: 205.858 cycles
L2C

SHEET
L2C-total_access : 9469948
L2C-total_hit : 7621610
L2C-total_miss : 1848338
L2C-load_access : 3598923
L2C-load_hit : 3220385
L2C-load_miss : 378538
L2C-rfo_access : 951792
L2C-rfo_hit : 19934
L2C-rfo_miss : 931858
L2C-prefetch_access : 3749257
L2C-prefetch_hit : 3213939
L2C-prefetch_miss : 535318
L2C-writeback_access : 1169976
L2C-writeback_hit : 1167352
L2C-writeback_miss : 2624
L2C-prefetch_requested : 5321295
L2C-prefetch_issued : 5318439
L2C-prefetch_useful : 22936
L2C-prefetch_useless : 512751
L2C-Avg_miss_latency : 205.858

LLC TOTAL     ACCESS:    4366508  HIT:    2924034  MISS:    1442474
LLC LOAD      ACCESS:     378128  HIT:     266208  MISS:     111920
LLC RFO       ACCESS:     931855  HIT:     137334  MISS:     794521
LLC PREFETCH  ACCESS:    1955366  HIT:    1421282  MISS:     534084
LLC WRITEBACK ACCESS:    1101159  HIT:    1099210  MISS:       1949
LLC PREFETCH  REQUESTED:          0  ISSUED:          0  USEFUL:      35766  USELESS:     498852
LLC AVERAGE MISS LATENCY: 270.637 cycles
LLC

SHEET
LLC-total_access : 4366508
LLC-total_hit : 2924034
LLC-total_miss : 1442474
LLC-load_access : 378128
LLC-load_hit : 266208
LLC-load_miss : 111920
LLC-rfo_access : 931855
LLC-rfo_hit : 137334
LLC-rfo_miss : 794521
LLC-prefetch_access : 1955366
LLC-prefetch_hit : 1421282
LLC-prefetch_miss : 534084
LLC-writeback_access : 1101159
LLC-writeback_hit : 1099210
LLC-writeback_miss : 1949
LLC-prefetch_requested : 0
LLC-prefetch_issued : 0
LLC-prefetch_useful : 35766
LLC-prefetch_useless : 498852
LLC-Avg_miss_latency : 270.637

Major fault: 0 Minor fault: 22442
CPU 0 L1D next line prefetcher final stats

DRAM Statistics
 CHANNEL 0
 RQ ROW_BUFFER_HIT:     415581  ROW_BUFFER_MISS:    1024748
 DBUS_CONGESTED:    1431178
 WQ ROW_BUFFER_HIT:     243927  ROW_BUFFER_MISS:     650266  FULL:          0

 AVG_CONGESTED_CYCLE: 6

CPU 0 Branch Prediction Accuracy: 99.7114% MPKI: 0.47678 Average ROB Occupancy at Mispredict: 159.737

Branch types
NOT_BRANCH: 41741008 83.482%
BRANCH_DIRECT_JUMP: 458652 0.917304%
BRANCH_INDIRECT: 48282 0.096564%
BRANCH_CONDITIONAL: 5930881 11.8618%
BRANCH_DIRECT_CALL: 744230 1.48846%
BRANCH_INDIRECT_CALL: 166336 0.332672%
BRANCH_RETURN: 910589 1.82118%
BRANCH_OTHER: 0 0%

