Initialize SIGNATURE TABLE
ST_SET: 1
ST_WAY: 256
ST_TAG_BIT: 16
ST_TAG_MASK: ffff

Initialize PATTERN TABLE
PT_SET: 512
PT_WAY: 4
SIG_DELTA_BIT: 7
C_SIG_BIT: 4
C_DELTA_BIT: 4

Initialize PREFETCH FILTER
FILTER_SET: 1024

*** ChampSim Multicore Out-of-Order Simulator ***

Warmup Instructions: 50000000
Simulation Instructions: 50000000
Number of CPUs: 1
LLC sets: 2048
LLC ways: 16
Off-chip DRAM Size: 4096 MB Channels: 1 Width: 64-bit Data Rate: 3200 MT/s

CPU 0 runs /home/mbaradaran/ChampSim/dpc3_traces/server_025.champsimtrace.xz
CPU 0 L1D next line prefetcher
Heartbeat CPU 0 instructions: 10000003 cycles: 3536415 heartbeat IPC: 2.82772 cumulative IPC: 2.82772 (Simulation time: 0 hr 1 min 46 sec) 
Heartbeat CPU 0 instructions: 20000000 cycles: 7079838 heartbeat IPC: 2.82213 cumulative IPC: 2.82492 (Simulation time: 0 hr 3 min 29 sec) 
Heartbeat CPU 0 instructions: 30000001 cycles: 10615649 heartbeat IPC: 2.82821 cumulative IPC: 2.82602 (Simulation time: 0 hr 5 min 4 sec) 
Heartbeat CPU 0 instructions: 40000003 cycles: 14157632 heartbeat IPC: 2.82328 cumulative IPC: 2.82533 (Simulation time: 0 hr 6 min 43 sec) 
Heartbeat CPU 0 instructions: 50000001 cycles: 17697377 heartbeat IPC: 2.82506 cumulative IPC: 2.82528 (Simulation time: 0 hr 8 min 28 sec) 

Warmup complete CPU 0 instructions: 50000001 cycles: 17697377 (Simulation time: 0 hr 8 min 28 sec) 

Heartbeat CPU 0 instructions: 60000000 cycles: 29115642 heartbeat IPC: 0.87579 cumulative IPC: 0.87579 (Simulation time: 0 hr 9 min 41 sec) 
Heartbeat CPU 0 instructions: 70000000 cycles: 40750495 heartbeat IPC: 0.859487 cumulative IPC: 0.867562 (Simulation time: 0 hr 10 min 54 sec) 
Heartbeat CPU 0 instructions: 80000000 cycles: 52208235 heartbeat IPC: 0.872772 cumulative IPC: 0.869292 (Simulation time: 0 hr 12 min 7 sec) 
Heartbeat CPU 0 instructions: 90000001 cycles: 62544142 heartbeat IPC: 0.967501 cumulative IPC: 0.891926 (Simulation time: 0 hr 13 min 18 sec) 
Heartbeat CPU 0 instructions: 100000001 cycles: 71830161 heartbeat IPC: 1.07689 cumulative IPC: 0.923655 (Simulation time: 0 hr 14 min 23 sec) 
Finished CPU 0 instructions: 50000000 cycles: 54132784 cumulative IPC: 0.923655 (Simulation time: 0 hr 14 min 23 sec) 

ChampSim completed all CPUs

Region of Interest Statistics

CPU 0 cumulative IPC: 0.923655 instructions: 50000000 cycles: 54132784

SHEET
IPC : 0.923655

L1D TOTAL     ACCESS:   22735996  HIT:   21308079  MISS:    1427917
L1D LOAD      ACCESS:    8280068  HIT:    7674238  MISS:     605830
L1D RFO       ACCESS:    6467898  HIT:    6218991  MISS:     248907
L1D PREFETCH  ACCESS:    7988030  HIT:    7414850  MISS:     573180
L1D WRITEBACK ACCESS:          0  HIT:          0  MISS:          0
L1D PREFETCH  REQUESTED:    8324517  ISSUED:    8164139  USEFUL:     144462  USELESS:     428713
L1D AVERAGE MISS LATENCY: 22.4926 cycles
L1D

SHEET
L1D-total_access : 22735996
L1D-total_hit : 21308079
L1D-total_miss : 1427917
L1D-load_access : 8280068
L1D-load_hit : 7674238
L1D-load_miss : 605830
L1D-rfo_access : 6467898
L1D-rfo_hit : 6218991
L1D-rfo_miss : 248907
L1D-prefetch_access : 7988030
L1D-prefetch_hit : 7414850
L1D-prefetch_miss : 573180
L1D-writeback_access : 0
L1D-writeback_hit : 0
L1D-writeback_miss : 0
L1D-prefetch_requested : 8324517
L1D-prefetch_issued : 8164139
L1D-prefetch_useful : 144462
L1D-prefetch_useless : 428713
L1D-Avg_miss_latency : 22.4926

L1I TOTAL     ACCESS:    9355163  HIT:    6462611  MISS:    2892552
L1I LOAD      ACCESS:    9355163  HIT:    6462611  MISS:    2892552
L1I RFO       ACCESS:          0  HIT:          0  MISS:          0
L1I PREFETCH  ACCESS:          0  HIT:          0  MISS:          0
L1I WRITEBACK ACCESS:          0  HIT:          0  MISS:          0
L1I PREFETCH  REQUESTED:          0  ISSUED:          0  USEFUL:          0  USELESS:          0
L1I AVERAGE MISS LATENCY: 18.1126 cycles
L1I

SHEET
L1I-total_access : 9355163
L1I-total_hit : 6462611
L1I-total_miss : 2892552
L1I-load_access : 9355163
L1I-load_hit : 6462611
L1I-load_miss : 2892552
L1I-rfo_access : 0
L1I-rfo_hit : 0
L1I-rfo_miss : 0
L1I-prefetch_access : 0
L1I-prefetch_hit : 0
L1I-prefetch_miss : 0
L1I-writeback_access : 0
L1I-writeback_hit : 0
L1I-writeback_miss : 0
L1I-prefetch_requested : 0
L1I-prefetch_issued : 0
L1I-prefetch_useful : 0
L1I-prefetch_useless : 0
L1I-Avg_miss_latency : 18.1126

L2C TOTAL     ACCESS:    7173178  HIT:    6505877  MISS:     667301
L2C LOAD      ACCESS:    3459709  HIT:    2981260  MISS:     478449
L2C RFO       ACCESS:     246477  HIT:     171321  MISS:      75156
L2C PREFETCH  ACCESS:    2970236  HIT:    2860398  MISS:     109838
L2C WRITEBACK ACCESS:     496756  HIT:     492898  MISS:       3858
L2C PREFETCH  REQUESTED:    4432709  ISSUED:    4432502  USEFUL:       9839  USELESS:      99909
L2C AVERAGE MISS LATENCY: 35.4112 cycles
L2C

SHEET
L2C-total_access : 7173178
L2C-total_hit : 6505877
L2C-total_miss : 667301
L2C-load_access : 3459709
L2C-load_hit : 2981260
L2C-load_miss : 478449
L2C-rfo_access : 246477
L2C-rfo_hit : 171321
L2C-rfo_miss : 75156
L2C-prefetch_access : 2970236
L2C-prefetch_hit : 2860398
L2C-prefetch_miss : 109838
L2C-writeback_access : 496756
L2C-writeback_hit : 492898
L2C-writeback_miss : 3858
L2C-prefetch_requested : 4432709
L2C-prefetch_issued : 4432502
L2C-prefetch_useful : 9839
L2C-prefetch_useless : 99909
L2C-Avg_miss_latency : 35.4112

LLC TOTAL     ACCESS:    2166805  HIT:    2139065  MISS:      27740
LLC LOAD      ACCESS:     477879  HIT:     473797  MISS:       4082
LLC RFO       ACCESS:      75156  HIT:      64427  MISS:      10729
LLC PREFETCH  ACCESS:    1487140  HIT:    1474418  MISS:      12722
LLC WRITEBACK ACCESS:     126630  HIT:     126423  MISS:        207
LLC PREFETCH  REQUESTED:          0  ISSUED:          0  USEFUL:       1436  USELESS:      11230
LLC AVERAGE MISS LATENCY: 178.63 cycles
LLC

SHEET
LLC-total_access : 2166805
LLC-total_hit : 2139065
LLC-total_miss : 27740
LLC-load_access : 477879
LLC-load_hit : 473797
LLC-load_miss : 4082
LLC-rfo_access : 75156
LLC-rfo_hit : 64427
LLC-rfo_miss : 10729
LLC-prefetch_access : 1487140
LLC-prefetch_hit : 1474418
LLC-prefetch_miss : 12722
LLC-writeback_access : 126630
LLC-writeback_hit : 126423
LLC-writeback_miss : 207
LLC-prefetch_requested : 0
LLC-prefetch_issued : 0
LLC-prefetch_useful : 1436
LLC-prefetch_useless : 11230
LLC-Avg_miss_latency : 178.63

Major fault: 0 Minor fault: 2457
CPU 0 L1D next line prefetcher final stats

DRAM Statistics
 CHANNEL 0
 RQ ROW_BUFFER_HIT:       9153  ROW_BUFFER_MISS:      18373
 DBUS_CONGESTED:      18299
 WQ ROW_BUFFER_HIT:       1382  ROW_BUFFER_MISS:      11409  FULL:          0

 AVG_CONGESTED_CYCLE: 6

CPU 0 Branch Prediction Accuracy: 99.8142% MPKI: 0.34676 Average ROB Occupancy at Mispredict: 67.0494

Branch types
NOT_BRANCH: 40668661 81.3373%
BRANCH_DIRECT_JUMP: 531697 1.06339%
BRANCH_INDIRECT: 199023 0.398046%
BRANCH_CONDITIONAL: 6211453 12.4229%
BRANCH_DIRECT_CALL: 1010905 2.02181%
BRANCH_INDIRECT_CALL: 183501 0.367002%
BRANCH_RETURN: 1194406 2.38881%
BRANCH_OTHER: 0 0%

