Initialize SIGNATURE TABLE
ST_SET: 1
ST_WAY: 256
ST_TAG_BIT: 16
ST_TAG_MASK: ffff

Initialize PATTERN TABLE
PT_SET: 512
PT_WAY: 4
SIG_DELTA_BIT: 7
C_SIG_BIT: 4
C_DELTA_BIT: 4

Initialize PREFETCH FILTER
FILTER_SET: 1024

*** ChampSim Multicore Out-of-Order Simulator ***

Warmup Instructions: 50000000
Simulation Instructions: 50000000
Number of CPUs: 1
LLC sets: 2048
LLC ways: 16
Off-chip DRAM Size: 4096 MB Channels: 1 Width: 64-bit Data Rate: 3200 MT/s

CPU 0 runs /home/mbaradaran/ChampSim/dpc3_traces/server_020.champsimtrace.xz
CPU 0 L1D next line prefetcher
Heartbeat CPU 0 instructions: 10000003 cycles: 3635347 heartbeat IPC: 2.75077 cumulative IPC: 2.75077 (Simulation time: 0 hr 1 min 37 sec) 
Heartbeat CPU 0 instructions: 20000002 cycles: 7275261 heartbeat IPC: 2.74732 cumulative IPC: 2.74904 (Simulation time: 0 hr 3 min 27 sec) 
Heartbeat CPU 0 instructions: 30000001 cycles: 10908111 heartbeat IPC: 2.75266 cumulative IPC: 2.75025 (Simulation time: 0 hr 5 min 19 sec) 
Heartbeat CPU 0 instructions: 40000002 cycles: 14542571 heartbeat IPC: 2.75144 cumulative IPC: 2.75055 (Simulation time: 0 hr 7 min 7 sec) 
Heartbeat CPU 0 instructions: 50000001 cycles: 18189659 heartbeat IPC: 2.74191 cumulative IPC: 2.74881 (Simulation time: 0 hr 8 min 53 sec) 

Warmup complete CPU 0 instructions: 50000001 cycles: 18189659 (Simulation time: 0 hr 8 min 53 sec) 

Heartbeat CPU 0 instructions: 60000003 cycles: 37864324 heartbeat IPC: 0.508268 cumulative IPC: 0.508268 (Simulation time: 0 hr 11 min 6 sec) 
Heartbeat CPU 0 instructions: 70000002 cycles: 57436566 heartbeat IPC: 0.510928 cumulative IPC: 0.509594 (Simulation time: 0 hr 13 min 21 sec) 
Heartbeat CPU 0 instructions: 80000002 cycles: 76915576 heartbeat IPC: 0.513373 cumulative IPC: 0.510848 (Simulation time: 0 hr 15 min 33 sec) 
Heartbeat CPU 0 instructions: 90000001 cycles: 96437057 heartbeat IPC: 0.512256 cumulative IPC: 0.511199 (Simulation time: 0 hr 17 min 40 sec) 
Heartbeat CPU 0 instructions: 100000002 cycles: 115983748 heartbeat IPC: 0.511596 cumulative IPC: 0.511278 (Simulation time: 0 hr 19 min 40 sec) 
Finished CPU 0 instructions: 50000001 cycles: 97794089 cumulative IPC: 0.511278 (Simulation time: 0 hr 19 min 40 sec) 

ChampSim completed all CPUs

Region of Interest Statistics

CPU 0 cumulative IPC: 0.511278 instructions: 50000001 cycles: 97794089

SHEET
IPC : 0.511278

L1D TOTAL     ACCESS:   20153236  HIT:   17948920  MISS:    2204316
L1D LOAD      ACCESS:    7779868  HIT:    7059926  MISS:     719942
L1D RFO       ACCESS:    5846007  HIT:    4899932  MISS:     946075
L1D PREFETCH  ACCESS:    6527361  HIT:    5989062  MISS:     538299
L1D WRITEBACK ACCESS:          0  HIT:          0  MISS:          0
L1D PREFETCH  REQUESTED:    7828999  ISSUED:    7646617  USEFUL:     198845  USELESS:     339372
L1D AVERAGE MISS LATENCY: 170.636 cycles
L1D

SHEET
L1D-total_access : 20153236
L1D-total_hit : 17948920
L1D-total_miss : 2204316
L1D-load_access : 7779868
L1D-load_hit : 7059926
L1D-load_miss : 719942
L1D-rfo_access : 5846007
L1D-rfo_hit : 4899932
L1D-rfo_miss : 946075
L1D-prefetch_access : 6527361
L1D-prefetch_hit : 5989062
L1D-prefetch_miss : 538299
L1D-writeback_access : 0
L1D-writeback_hit : 0
L1D-writeback_miss : 0
L1D-prefetch_requested : 7828999
L1D-prefetch_issued : 7646617
L1D-prefetch_useful : 198845
L1D-prefetch_useless : 339372
L1D-Avg_miss_latency : 170.636

L1I TOTAL     ACCESS:    9905663  HIT:    6820913  MISS:    3084750
L1I LOAD      ACCESS:    9905663  HIT:    6820913  MISS:    3084750
L1I RFO       ACCESS:          0  HIT:          0  MISS:          0
L1I PREFETCH  ACCESS:          0  HIT:          0  MISS:          0
L1I WRITEBACK ACCESS:          0  HIT:          0  MISS:          0
L1I PREFETCH  REQUESTED:          0  ISSUED:          0  USEFUL:          0  USELESS:          0
L1I AVERAGE MISS LATENCY: 16.8296 cycles
L1I

SHEET
L1I-total_access : 9905663
L1I-total_hit : 6820913
L1I-total_miss : 3084750
L1I-load_access : 9905663
L1I-load_hit : 6820913
L1I-load_miss : 3084750
L1I-rfo_access : 0
L1I-rfo_hit : 0
L1I-rfo_miss : 0
L1I-prefetch_access : 0
L1I-prefetch_hit : 0
L1I-prefetch_miss : 0
L1I-writeback_access : 0
L1I-writeback_hit : 0
L1I-writeback_miss : 0
L1I-prefetch_requested : 0
L1I-prefetch_issued : 0
L1I-prefetch_useful : 0
L1I-prefetch_useless : 0
L1I-Avg_miss_latency : 16.8296

L2C TOTAL     ACCESS:    9348421  HIT:    7500722  MISS:    1847699
L2C LOAD      ACCESS:    3578957  HIT:    3197211  MISS:     381746
L2C RFO       ACCESS:     945673  HIT:      20090  MISS:     925583
L2C PREFETCH  ACCESS:    3660248  HIT:    3122400  MISS:     537848
L2C WRITEBACK ACCESS:    1163543  HIT:    1161021  MISS:       2522
L2C PREFETCH  REQUESTED:    5112667  ISSUED:    5109385  USEFUL:      23034  USELESS:     514437
L2C AVERAGE MISS LATENCY: 206.554 cycles
L2C

SHEET
L2C-total_access : 9348421
L2C-total_hit : 7500722
L2C-total_miss : 1847699
L2C-load_access : 3578957
L2C-load_hit : 3197211
L2C-load_miss : 381746
L2C-rfo_access : 945673
L2C-rfo_hit : 20090
L2C-rfo_miss : 925583
L2C-prefetch_access : 3660248
L2C-prefetch_hit : 3122400
L2C-prefetch_miss : 537848
L2C-writeback_access : 1163543
L2C-writeback_hit : 1161021
L2C-writeback_miss : 2522
L2C-prefetch_requested : 5112667
L2C-prefetch_issued : 5109385
L2C-prefetch_useful : 23034
L2C-prefetch_useless : 514437
L2C-Avg_miss_latency : 206.554

LLC TOTAL     ACCESS:    4287249  HIT:    2842120  MISS:    1445129
LLC LOAD      ACCESS:     381368  HIT:     264122  MISS:     117246
LLC RFO       ACCESS:     925579  HIT:     138165  MISS:     787414
LLC PREFETCH  ACCESS:    1882581  HIT:    1344073  MISS:     538508
LLC WRITEBACK ACCESS:    1097721  HIT:    1095760  MISS:       1961
LLC PREFETCH  REQUESTED:          0  ISSUED:          0  USEFUL:      38965  USELESS:     499913
LLC AVERAGE MISS LATENCY: 268.998 cycles
LLC

SHEET
LLC-total_access : 4287249
LLC-total_hit : 2842120
LLC-total_miss : 1445129
LLC-load_access : 381368
LLC-load_hit : 264122
LLC-load_miss : 117246
LLC-rfo_access : 925579
LLC-rfo_hit : 138165
LLC-rfo_miss : 787414
LLC-prefetch_access : 1882582
LLC-prefetch_hit : 1344074
LLC-prefetch_miss : 538508
LLC-writeback_access : 1097721
LLC-writeback_hit : 1095760
LLC-writeback_miss : 1961
LLC-prefetch_requested : 0
LLC-prefetch_issued : 0
LLC-prefetch_useful : 38965
LLC-prefetch_useless : 499913
LLC-Avg_miss_latency : 268.998

Major fault: 0 Minor fault: 22091
CPU 0 L1D next line prefetcher final stats

DRAM Statistics
 CHANNEL 0
 RQ ROW_BUFFER_HIT:     412224  ROW_BUFFER_MISS:    1030697
 DBUS_CONGESTED:    1419578
 WQ ROW_BUFFER_HIT:     245796  ROW_BUFFER_MISS:     643653  FULL:          0

 AVG_CONGESTED_CYCLE: 6

CPU 0 Branch Prediction Accuracy: 99.712% MPKI: 0.47638 Average ROB Occupancy at Mispredict: 164.756

Branch types
NOT_BRANCH: 41729374 83.4587%
BRANCH_DIRECT_JUMP: 458219 0.916438%
BRANCH_INDIRECT: 49088 0.098176%
BRANCH_CONDITIONAL: 5938510 11.877%
BRANCH_DIRECT_CALL: 745128 1.49026%
BRANCH_INDIRECT_CALL: 167106 0.334212%
BRANCH_RETURN: 912219 1.82444%
BRANCH_OTHER: 0 0%

