Initialize SIGNATURE TABLE
ST_SET: 1
ST_WAY: 256
ST_TAG_BIT: 16
ST_TAG_MASK: ffff

Initialize PATTERN TABLE
PT_SET: 512
PT_WAY: 4
SIG_DELTA_BIT: 7
C_SIG_BIT: 4
C_DELTA_BIT: 4

Initialize PREFETCH FILTER
FILTER_SET: 1024

*** ChampSim Multicore Out-of-Order Simulator ***

Warmup Instructions: 50000000
Simulation Instructions: 50000000
Number of CPUs: 1
LLC sets: 2048
LLC ways: 16
Off-chip DRAM Size: 4096 MB Channels: 1 Width: 64-bit Data Rate: 3200 MT/s

CPU 0 runs /home/mbaradaran/ChampSim/dpc3_traces/server_035.champsimtrace.xz
CPU 0 L1D next line prefetcher
Heartbeat CPU 0 instructions: 10000001 cycles: 3346742 heartbeat IPC: 2.98798 cumulative IPC: 2.98798 (Simulation time: 0 hr 1 min 35 sec) 
Heartbeat CPU 0 instructions: 20000000 cycles: 6692073 heartbeat IPC: 2.98924 cumulative IPC: 2.98861 (Simulation time: 0 hr 3 min 17 sec) 
Heartbeat CPU 0 instructions: 30000000 cycles: 10033863 heartbeat IPC: 2.99241 cumulative IPC: 2.98988 (Simulation time: 0 hr 4 min 56 sec) 
Heartbeat CPU 0 instructions: 40000000 cycles: 13381827 heartbeat IPC: 2.98689 cumulative IPC: 2.98913 (Simulation time: 0 hr 6 min 19 sec) 
Heartbeat CPU 0 instructions: 50000003 cycles: 16726806 heartbeat IPC: 2.98956 cumulative IPC: 2.98921 (Simulation time: 0 hr 7 min 34 sec) 

Warmup complete CPU 0 instructions: 50000003 cycles: 16726806 (Simulation time: 0 hr 7 min 34 sec) 

Heartbeat CPU 0 instructions: 60000001 cycles: 28501239 heartbeat IPC: 0.849298 cumulative IPC: 0.849298 (Simulation time: 0 hr 8 min 36 sec) 
Heartbeat CPU 0 instructions: 70000003 cycles: 39987934 heartbeat IPC: 0.870573 cumulative IPC: 0.859804 (Simulation time: 0 hr 9 min 40 sec) 
Heartbeat CPU 0 instructions: 80000001 cycles: 51607102 heartbeat IPC: 0.860647 cumulative IPC: 0.860084 (Simulation time: 0 hr 10 min 43 sec) 
Heartbeat CPU 0 instructions: 90000003 cycles: 62542171 heartbeat IPC: 0.914489 cumulative IPC: 0.87307 (Simulation time: 0 hr 11 min 46 sec) 
Heartbeat CPU 0 instructions: 100000002 cycles: 74167559 heartbeat IPC: 0.860186 cumulative IPC: 0.870462 (Simulation time: 0 hr 12 min 43 sec) 
Finished CPU 0 instructions: 50000001 cycles: 57440754 cumulative IPC: 0.870462 (Simulation time: 0 hr 12 min 43 sec) 

ChampSim completed all CPUs

Region of Interest Statistics

CPU 0 cumulative IPC: 0.870462 instructions: 50000001 cycles: 57440754

SHEET
IPC : 0.870462

L1D TOTAL     ACCESS:   20784330  HIT:   19279294  MISS:    1505036
L1D LOAD      ACCESS:    7365530  HIT:    6672093  MISS:     693437
L1D RFO       ACCESS:    6236335  HIT:    6082378  MISS:     153957
L1D PREFETCH  ACCESS:    7182465  HIT:    6524823  MISS:     657642
L1D WRITEBACK ACCESS:          0  HIT:          0  MISS:          0
L1D PREFETCH  REQUESTED:    7416848  ISSUED:    7339063  USEFUL:     144460  USELESS:     513187
L1D AVERAGE MISS LATENCY: 42.748 cycles
L1D

SHEET
L1D-total_access : 20784330
L1D-total_hit : 19279294
L1D-total_miss : 1505036
L1D-load_access : 7365530
L1D-load_hit : 6672093
L1D-load_miss : 693437
L1D-rfo_access : 6236335
L1D-rfo_hit : 6082378
L1D-rfo_miss : 153957
L1D-prefetch_access : 7182465
L1D-prefetch_hit : 6524823
L1D-prefetch_miss : 657642
L1D-writeback_access : 0
L1D-writeback_hit : 0
L1D-writeback_miss : 0
L1D-prefetch_requested : 7416848
L1D-prefetch_issued : 7339063
L1D-prefetch_useful : 144460
L1D-prefetch_useless : 513187
L1D-Avg_miss_latency : 42.748

L1I TOTAL     ACCESS:    9665284  HIT:    5916506  MISS:    3748778
L1I LOAD      ACCESS:    9665284  HIT:    5916506  MISS:    3748778
L1I RFO       ACCESS:          0  HIT:          0  MISS:          0
L1I PREFETCH  ACCESS:          0  HIT:          0  MISS:          0
L1I WRITEBACK ACCESS:          0  HIT:          0  MISS:          0
L1I PREFETCH  REQUESTED:          0  ISSUED:          0  USEFUL:          0  USELESS:          0
L1I AVERAGE MISS LATENCY: 14.8847 cycles
L1I

SHEET
L1I-total_access : 9665284
L1I-total_hit : 5916506
L1I-total_miss : 3748778
L1I-load_access : 9665284
L1I-load_hit : 5916506
L1I-load_miss : 3748778
L1I-rfo_access : 0
L1I-rfo_hit : 0
L1I-rfo_miss : 0
L1I-prefetch_access : 0
L1I-prefetch_hit : 0
L1I-prefetch_miss : 0
L1I-writeback_access : 0
L1I-writeback_hit : 0
L1I-writeback_miss : 0
L1I-prefetch_requested : 0
L1I-prefetch_issued : 0
L1I-prefetch_useful : 0
L1I-prefetch_useless : 0
L1I-Avg_miss_latency : 14.8847

L2C TOTAL     ACCESS:    9095050  HIT:    8789634  MISS:     305416
L2C LOAD      ACCESS:    4432226  HIT:    4275592  MISS:     156634
L2C RFO       ACCESS:     153609  HIT:     133027  MISS:      20582
L2C PREFETCH  ACCESS:    4144678  HIT:    4017394  MISS:     127284
L2C WRITEBACK ACCESS:     364537  HIT:     363621  MISS:        916
L2C PREFETCH  REQUESTED:    6638460  ISSUED:    6634683  USEFUL:      13516  USELESS:     113928
L2C AVERAGE MISS LATENCY: 148.275 cycles
L2C

SHEET
L2C-total_access : 9095050
L2C-total_hit : 8789634
L2C-total_miss : 305416
L2C-load_access : 4432226
L2C-load_hit : 4275592
L2C-load_miss : 156634
L2C-rfo_access : 153609
L2C-rfo_hit : 133027
L2C-rfo_miss : 20582
L2C-prefetch_access : 4144678
L2C-prefetch_hit : 4017394
L2C-prefetch_miss : 127284
L2C-writeback_access : 364537
L2C-writeback_hit : 363621
L2C-writeback_miss : 916
L2C-prefetch_requested : 6638460
L2C-prefetch_issued : 6634683
L2C-prefetch_useful : 13516
L2C-prefetch_useless : 113928
L2C-Avg_miss_latency : 148.275

LLC TOTAL     ACCESS:    2475546  HIT:    2187172  MISS:     288374
LLC LOAD      ACCESS:     156046  HIT:      69287  MISS:      86759
LLC RFO       ACCESS:      20580  HIT:      10552  MISS:      10028
LLC PREFETCH  ACCESS:    2197971  HIT:    2007493  MISS:     190478
LLC WRITEBACK ACCESS:     100949  HIT:      99840  MISS:       1109
LLC PREFETCH  REQUESTED:          0  ISSUED:          0  USEFUL:      38380  USELESS:     153194
LLC AVERAGE MISS LATENCY: 207.287 cycles
LLC

SHEET
LLC-total_access : 2475546
LLC-total_hit : 2187172
LLC-total_miss : 288374
LLC-load_access : 156046
LLC-load_hit : 69287
LLC-load_miss : 86759
LLC-rfo_access : 20580
LLC-rfo_hit : 10552
LLC-rfo_miss : 10028
LLC-prefetch_access : 2197971
LLC-prefetch_hit : 2007493
LLC-prefetch_miss : 190478
LLC-writeback_access : 100949
LLC-writeback_hit : 99840
LLC-writeback_miss : 1109
LLC-prefetch_requested : 0
LLC-prefetch_issued : 0
LLC-prefetch_useful : 38380
LLC-prefetch_useless : 153194
LLC-Avg_miss_latency : 207.287

Major fault: 0 Minor fault: 5547
CPU 0 L1D next line prefetcher final stats

DRAM Statistics
 CHANNEL 0
 RQ ROW_BUFFER_HIT:      71282  ROW_BUFFER_MISS:     215974
 DBUS_CONGESTED:     171245
 WQ ROW_BUFFER_HIT:      17173  ROW_BUFFER_MISS:      73628  FULL:          0

 AVG_CONGESTED_CYCLE: 5

CPU 0 Branch Prediction Accuracy: 99.9115% MPKI: 0.17232 Average ROB Occupancy at Mispredict: 110.737

Branch types
NOT_BRANCH: 40267172 80.5343%
BRANCH_DIRECT_JUMP: 771899 1.5438%
BRANCH_INDIRECT: 108179 0.216358%
BRANCH_CONDITIONAL: 6307157 12.6143%
BRANCH_DIRECT_CALL: 1060891 2.12178%
BRANCH_INDIRECT_CALL: 211719 0.423438%
BRANCH_RETURN: 1272633 2.54527%
BRANCH_OTHER: 0 0%

