Initialize SIGNATURE TABLE
ST_SET: 1
ST_WAY: 256
ST_TAG_BIT: 16
ST_TAG_MASK: ffff

Initialize PATTERN TABLE
PT_SET: 512
PT_WAY: 4
SIG_DELTA_BIT: 7
C_SIG_BIT: 4
C_DELTA_BIT: 4

Initialize PREFETCH FILTER
FILTER_SET: 1024

*** ChampSim Multicore Out-of-Order Simulator ***

Warmup Instructions: 50000000
Simulation Instructions: 50000000
Number of CPUs: 1
LLC sets: 2048
LLC ways: 16
Off-chip DRAM Size: 4096 MB Channels: 1 Width: 64-bit Data Rate: 3200 MT/s

CPU 0 runs /home/mbaradaran/ChampSim/dpc3_traces/server_011.champsimtrace.xz
CPU 0 L1D next line prefetcher
Heartbeat CPU 0 instructions: 10000002 cycles: 3210322 heartbeat IPC: 3.11495 cumulative IPC: 3.11495 (Simulation time: 0 hr 1 min 35 sec) 
Heartbeat CPU 0 instructions: 20000001 cycles: 6425814 heartbeat IPC: 3.10994 cumulative IPC: 3.11245 (Simulation time: 0 hr 3 min 7 sec) 
Heartbeat CPU 0 instructions: 30000001 cycles: 9685038 heartbeat IPC: 3.06821 cumulative IPC: 3.09756 (Simulation time: 0 hr 4 min 44 sec) 
Heartbeat CPU 0 instructions: 40000003 cycles: 12892413 heartbeat IPC: 3.11782 cumulative IPC: 3.1026 (Simulation time: 0 hr 6 min 5 sec) 
Heartbeat CPU 0 instructions: 50000000 cycles: 16106363 heartbeat IPC: 3.11144 cumulative IPC: 3.10436 (Simulation time: 0 hr 7 min 46 sec) 

Warmup complete CPU 0 instructions: 50000004 cycles: 16106364 (Simulation time: 0 hr 7 min 46 sec) 

Heartbeat CPU 0 instructions: 60000002 cycles: 28513336 heartbeat IPC: 0.805999 cumulative IPC: 0.805998 (Simulation time: 0 hr 8 min 55 sec) 
Heartbeat CPU 0 instructions: 70000001 cycles: 41303163 heartbeat IPC: 0.781871 cumulative IPC: 0.793751 (Simulation time: 0 hr 10 min 10 sec) 
Heartbeat CPU 0 instructions: 80000003 cycles: 51955241 heartbeat IPC: 0.938784 cumulative IPC: 0.836846 (Simulation time: 0 hr 11 min 16 sec) 
Heartbeat CPU 0 instructions: 90000001 cycles: 64544591 heartbeat IPC: 0.794322 cumulative IPC: 0.825794 (Simulation time: 0 hr 12 min 27 sec) 
Heartbeat CPU 0 instructions: 100000000 cycles: 76852263 heartbeat IPC: 0.812501 cumulative IPC: 0.823101 (Simulation time: 0 hr 13 min 31 sec) 
Finished CPU 0 instructions: 50000003 cycles: 60745911 cumulative IPC: 0.823101 (Simulation time: 0 hr 13 min 31 sec) 

ChampSim completed all CPUs

Region of Interest Statistics

CPU 0 cumulative IPC: 0.823101 instructions: 50000003 cycles: 60745911

SHEET
IPC : 0.823101

L1D TOTAL     ACCESS:   19767682  HIT:   18734971  MISS:    1032711
L1D LOAD      ACCESS:    7546220  HIT:    7076385  MISS:     469835
L1D RFO       ACCESS:    4900044  HIT:    4817507  MISS:      82537
L1D PREFETCH  ACCESS:    7321418  HIT:    6841079  MISS:     480339
L1D WRITEBACK ACCESS:          0  HIT:          0  MISS:          0
L1D PREFETCH  REQUESTED:    7587759  ISSUED:    7489364  USEFUL:     149451  USELESS:     330883
L1D AVERAGE MISS LATENCY: 38.7785 cycles
L1D

SHEET
L1D-total_access : 19767682
L1D-total_hit : 18734971
L1D-total_miss : 1032711
L1D-load_access : 7546220
L1D-load_hit : 7076385
L1D-load_miss : 469835
L1D-rfo_access : 4900044
L1D-rfo_hit : 4817507
L1D-rfo_miss : 82537
L1D-prefetch_access : 7321418
L1D-prefetch_hit : 6841079
L1D-prefetch_miss : 480339
L1D-writeback_access : 0
L1D-writeback_hit : 0
L1D-writeback_miss : 0
L1D-prefetch_requested : 7587759
L1D-prefetch_issued : 7489364
L1D-prefetch_useful : 149451
L1D-prefetch_useless : 330883
L1D-Avg_miss_latency : 38.7785

L1I TOTAL     ACCESS:    8832886  HIT:    6979039  MISS:    1853847
L1I LOAD      ACCESS:    8832886  HIT:    6979039  MISS:    1853847
L1I RFO       ACCESS:          0  HIT:          0  MISS:          0
L1I PREFETCH  ACCESS:          0  HIT:          0  MISS:          0
L1I WRITEBACK ACCESS:          0  HIT:          0  MISS:          0
L1I PREFETCH  REQUESTED:          0  ISSUED:          0  USEFUL:          0  USELESS:          0
L1I AVERAGE MISS LATENCY: 25.5161 cycles
L1I

SHEET
L1I-total_access : 8832886
L1I-total_hit : 6979039
L1I-total_miss : 1853847
L1I-load_access : 8832886
L1I-load_hit : 6979039
L1I-load_miss : 1853847
L1I-rfo_access : 0
L1I-rfo_hit : 0
L1I-rfo_miss : 0
L1I-prefetch_access : 0
L1I-prefetch_hit : 0
L1I-prefetch_miss : 0
L1I-writeback_access : 0
L1I-writeback_hit : 0
L1I-writeback_miss : 0
L1I-prefetch_requested : 0
L1I-prefetch_issued : 0
L1I-prefetch_useful : 0
L1I-prefetch_useless : 0
L1I-Avg_miss_latency : 25.5161

L2C TOTAL     ACCESS:    4643545  HIT:    3593420  MISS:    1050125
L2C LOAD      ACCESS:    2303691  HIT:    1590824  MISS:     712867
L2C RFO       ACCESS:      80784  HIT:      36516  MISS:      44268
L2C PREFETCH  ACCESS:    1990864  HIT:    1698606  MISS:     292258
L2C WRITEBACK ACCESS:     268206  HIT:     267474  MISS:        732
L2C PREFETCH  REQUESTED:    3865276  ISSUED:    3865024  USEFUL:      53906  USELESS:     238382
L2C AVERAGE MISS LATENCY: 44.626 cycles
L2C

SHEET
L2C-total_access : 4643545
L2C-total_hit : 3593420
L2C-total_miss : 1050125
L2C-load_access : 2303691
L2C-load_hit : 1590824
L2C-load_miss : 712867
L2C-rfo_access : 80784
L2C-rfo_hit : 36516
L2C-rfo_miss : 44268
L2C-prefetch_access : 1990864
L2C-prefetch_hit : 1698606
L2C-prefetch_miss : 292258
L2C-writeback_access : 268206
L2C-writeback_hit : 267474
L2C-writeback_miss : 732
L2C-prefetch_requested : 3865276
L2C-prefetch_issued : 3865024
L2C-prefetch_useful : 53906
L2C-prefetch_useless : 238382
L2C-Avg_miss_latency : 44.626

LLC TOTAL     ACCESS:    2771580  HIT:    2557947  MISS:     213633
LLC LOAD      ACCESS:     689548  HIT:     637910  MISS:      51638
LLC RFO       ACCESS:      44260  HIT:      30895  MISS:      13365
LLC PREFETCH  ACCESS:    1890917  HIT:    1742964  MISS:     147953
LLC WRITEBACK ACCESS:     146855  HIT:     146178  MISS:        677
LLC PREFETCH  REQUESTED:          0  ISSUED:          0  USEFUL:      31940  USELESS:     116043
LLC AVERAGE MISS LATENCY: 162.05 cycles
LLC

SHEET
LLC-total_access : 2771580
LLC-total_hit : 2557947
LLC-total_miss : 213633
LLC-load_access : 689548
LLC-load_hit : 637910
LLC-load_miss : 51638
LLC-rfo_access : 44260
LLC-rfo_hit : 30895
LLC-rfo_miss : 13365
LLC-prefetch_access : 1890917
LLC-prefetch_hit : 1742964
LLC-prefetch_miss : 147953
LLC-writeback_access : 146855
LLC-writeback_hit : 146178
LLC-writeback_miss : 677
LLC-prefetch_requested : 0
LLC-prefetch_issued : 0
LLC-prefetch_useful : 31940
LLC-prefetch_useless : 116043
LLC-Avg_miss_latency : 162.05

Major fault: 0 Minor fault: 6971
CPU 0 L1D next line prefetcher final stats

DRAM Statistics
 CHANNEL 0
 RQ ROW_BUFFER_HIT:      41107  ROW_BUFFER_MISS:     171843
 DBUS_CONGESTED:      82165
 WQ ROW_BUFFER_HIT:      12876  ROW_BUFFER_MISS:      51069  FULL:          0

 AVG_CONGESTED_CYCLE: 5

CPU 0 Branch Prediction Accuracy: 97.5565% MPKI: 4.59006 Average ROB Occupancy at Mispredict: 39.1021

Branch types
NOT_BRANCH: 40607199 81.2144%
BRANCH_DIRECT_JUMP: 451601 0.903202%
BRANCH_INDIRECT: 151580 0.30316%
BRANCH_CONDITIONAL: 7041635 14.0833%
BRANCH_DIRECT_CALL: 647827 1.29565%
BRANCH_INDIRECT_CALL: 211373 0.422746%
BRANCH_RETURN: 888439 1.77688%
BRANCH_OTHER: 0 0%

