Initialize SIGNATURE TABLE
ST_SET: 1
ST_WAY: 256
ST_TAG_BIT: 16
ST_TAG_MASK: ffff

Initialize PATTERN TABLE
PT_SET: 512
PT_WAY: 4
SIG_DELTA_BIT: 7
C_SIG_BIT: 4
C_DELTA_BIT: 4

Initialize PREFETCH FILTER
FILTER_SET: 1024

*** ChampSim Multicore Out-of-Order Simulator ***

Warmup Instructions: 50000000
Simulation Instructions: 50000000
Number of CPUs: 1
LLC sets: 2048
LLC ways: 16
Off-chip DRAM Size: 4096 MB Channels: 1 Width: 64-bit Data Rate: 3200 MT/s

CPU 0 runs /home/mbaradaran/ChampSim/dpc3_traces/server_033.champsimtrace.xz
CPU 0 L1D next line prefetcher
Heartbeat CPU 0 instructions: 10000001 cycles: 3349946 heartbeat IPC: 2.98512 cumulative IPC: 2.98512 (Simulation time: 0 hr 1 min 38 sec) 
Heartbeat CPU 0 instructions: 20000003 cycles: 6698036 heartbeat IPC: 2.98678 cumulative IPC: 2.98595 (Simulation time: 0 hr 3 min 13 sec) 
Heartbeat CPU 0 instructions: 30000001 cycles: 10035993 heartbeat IPC: 2.99584 cumulative IPC: 2.98924 (Simulation time: 0 hr 4 min 48 sec) 
Heartbeat CPU 0 instructions: 40000000 cycles: 13383356 heartbeat IPC: 2.98743 cumulative IPC: 2.98879 (Simulation time: 0 hr 6 min 22 sec) 
Heartbeat CPU 0 instructions: 50000000 cycles: 16729893 heartbeat IPC: 2.98816 cumulative IPC: 2.98866 (Simulation time: 0 hr 7 min 53 sec) 

Warmup complete CPU 0 instructions: 50000004 cycles: 16729894 (Simulation time: 0 hr 7 min 53 sec) 

Heartbeat CPU 0 instructions: 60000000 cycles: 27181153 heartbeat IPC: 0.956822 cumulative IPC: 0.956822 (Simulation time: 0 hr 8 min 54 sec) 
Heartbeat CPU 0 instructions: 70000000 cycles: 37579287 heartbeat IPC: 0.961711 cumulative IPC: 0.95926 (Simulation time: 0 hr 9 min 59 sec) 
Heartbeat CPU 0 instructions: 80000000 cycles: 48591372 heartbeat IPC: 0.908093 cumulative IPC: 0.941576 (Simulation time: 0 hr 10 min 56 sec) 
Heartbeat CPU 0 instructions: 90000001 cycles: 59085536 heartbeat IPC: 0.952911 cumulative IPC: 0.944384 (Simulation time: 0 hr 11 min 58 sec) 
Heartbeat CPU 0 instructions: 100000000 cycles: 69539977 heartbeat IPC: 0.956531 cumulative IPC: 0.946789 (Simulation time: 0 hr 12 min 58 sec) 
Finished CPU 0 instructions: 50000000 cycles: 52810090 cumulative IPC: 0.946789 (Simulation time: 0 hr 12 min 58 sec) 

ChampSim completed all CPUs

Region of Interest Statistics

CPU 0 cumulative IPC: 0.946789 instructions: 50000000 cycles: 52810090

SHEET
IPC : 0.946789

L1D TOTAL     ACCESS:   21110055  HIT:   19626655  MISS:    1483400
L1D LOAD      ACCESS:    7524271  HIT:    6849919  MISS:     674352
L1D RFO       ACCESS:    6246829  HIT:    6095492  MISS:     151337
L1D PREFETCH  ACCESS:    7338955  HIT:    6681244  MISS:     657711
L1D WRITEBACK ACCESS:          0  HIT:          0  MISS:          0
L1D PREFETCH  REQUESTED:    7580541  ISSUED:    7480833  USEFUL:     148646  USELESS:     509070
L1D AVERAGE MISS LATENCY: 23.3022 cycles
L1D

SHEET
L1D-total_access : 21110055
L1D-total_hit : 19626655
L1D-total_miss : 1483400
L1D-load_access : 7524271
L1D-load_hit : 6849919
L1D-load_miss : 674352
L1D-rfo_access : 6246829
L1D-rfo_hit : 6095492
L1D-rfo_miss : 151337
L1D-prefetch_access : 7338955
L1D-prefetch_hit : 6681244
L1D-prefetch_miss : 657711
L1D-writeback_access : 0
L1D-writeback_hit : 0
L1D-writeback_miss : 0
L1D-prefetch_requested : 7580541
L1D-prefetch_issued : 7480833
L1D-prefetch_useful : 148646
L1D-prefetch_useless : 509070
L1D-Avg_miss_latency : 23.3022

L1I TOTAL     ACCESS:    9651303  HIT:    5903550  MISS:    3747753
L1I LOAD      ACCESS:    9651303  HIT:    5903550  MISS:    3747753
L1I RFO       ACCESS:          0  HIT:          0  MISS:          0
L1I PREFETCH  ACCESS:          0  HIT:          0  MISS:          0
L1I WRITEBACK ACCESS:          0  HIT:          0  MISS:          0
L1I PREFETCH  REQUESTED:          0  ISSUED:          0  USEFUL:          0  USELESS:          0
L1I AVERAGE MISS LATENCY: 14.5139 cycles
L1I

SHEET
L1I-total_access : 9651303
L1I-total_hit : 5903550
L1I-total_miss : 3747753
L1I-load_access : 9651303
L1I-load_hit : 5903550
L1I-load_miss : 3747753
L1I-rfo_access : 0
L1I-rfo_hit : 0
L1I-rfo_miss : 0
L1I-prefetch_access : 0
L1I-prefetch_hit : 0
L1I-prefetch_miss : 0
L1I-writeback_access : 0
L1I-writeback_hit : 0
L1I-writeback_miss : 0
L1I-prefetch_requested : 0
L1I-prefetch_issued : 0
L1I-prefetch_useful : 0
L1I-prefetch_useless : 0
L1I-Avg_miss_latency : 14.5139

L2C TOTAL     ACCESS:    9281525  HIT:    9001911  MISS:     279614
L2C LOAD      ACCESS:    4415514  HIT:    4268229  MISS:     147285
L2C RFO       ACCESS:     150825  HIT:     130643  MISS:      20182
L2C PREFETCH  ACCESS:    4348273  HIT:    4237181  MISS:     111092
L2C WRITEBACK ACCESS:     366913  HIT:     365858  MISS:       1055
L2C PREFETCH  REQUESTED:    6550182  ISSUED:    6543293  USEFUL:       9501  USELESS:     101667
L2C AVERAGE MISS LATENCY: 49.0946 cycles
L2C

SHEET
L2C-total_access : 9281525
L2C-total_hit : 9001911
L2C-total_miss : 279614
L2C-load_access : 4415514
L2C-load_hit : 4268229
L2C-load_miss : 147285
L2C-rfo_access : 150825
L2C-rfo_hit : 130643
L2C-rfo_miss : 20182
L2C-prefetch_access : 4348273
L2C-prefetch_hit : 4237181
L2C-prefetch_miss : 111092
L2C-writeback_access : 366913
L2C-writeback_hit : 365858
L2C-writeback_miss : 1055
L2C-prefetch_requested : 6550182
L2C-prefetch_issued : 6543293
L2C-prefetch_useful : 9501
L2C-prefetch_useless : 101667
L2C-Avg_miss_latency : 49.0946

LLC TOTAL     ACCESS:    2236822  HIT:    2178261  MISS:      58561
LLC LOAD      ACCESS:     147161  HIT:     131651  MISS:      15510
LLC RFO       ACCESS:      20182  HIT:      17201  MISS:       2981
LLC PREFETCH  ACCESS:    1966583  HIT:    1926774  MISS:      39809
LLC WRITEBACK ACCESS:     102896  HIT:     102635  MISS:        261
LLC PREFETCH  REQUESTED:          0  ISSUED:          0  USEFUL:       7550  USELESS:      31659
LLC AVERAGE MISS LATENCY: 166.287 cycles
LLC

SHEET
LLC-total_access : 2236822
LLC-total_hit : 2178261
LLC-total_miss : 58561
LLC-load_access : 147161
LLC-load_hit : 131651
LLC-load_miss : 15510
LLC-rfo_access : 20182
LLC-rfo_hit : 17201
LLC-rfo_miss : 2981
LLC-prefetch_access : 1966583
LLC-prefetch_hit : 1926774
LLC-prefetch_miss : 39809
LLC-writeback_access : 102896
LLC-writeback_hit : 102635
LLC-writeback_miss : 261
LLC-prefetch_requested : 0
LLC-prefetch_issued : 0
LLC-prefetch_useful : 7550
LLC-prefetch_useless : 31659
LLC-Avg_miss_latency : 166.287

Major fault: 0 Minor fault: 2482
CPU 0 L1D next line prefetcher final stats

DRAM Statistics
 CHANNEL 0
 RQ ROW_BUFFER_HIT:       9762  ROW_BUFFER_MISS:      48534
 DBUS_CONGESTED:      25333
 WQ ROW_BUFFER_HIT:       3378  ROW_BUFFER_MISS:      16584  FULL:          0

 AVG_CONGESTED_CYCLE: 5

CPU 0 Branch Prediction Accuracy: 99.9029% MPKI: 0.19006 Average ROB Occupancy at Mispredict: 85.7631

Branch types
NOT_BRANCH: 40217077 80.4342%
BRANCH_DIRECT_JUMP: 774599 1.5492%
BRANCH_INDIRECT: 108806 0.217612%
BRANCH_CONDITIONAL: 6379326 12.7587%
BRANCH_DIRECT_CALL: 1048808 2.09762%
BRANCH_INDIRECT_CALL: 211109 0.422218%
BRANCH_RETURN: 1259924 2.51985%
BRANCH_OTHER: 0 0%

