Initialize SIGNATURE TABLE
ST_SET: 1
ST_WAY: 256
ST_TAG_BIT: 16
ST_TAG_MASK: ffff

Initialize PATTERN TABLE
PT_SET: 512
PT_WAY: 4
SIG_DELTA_BIT: 7
C_SIG_BIT: 4
C_DELTA_BIT: 4

Initialize PREFETCH FILTER
FILTER_SET: 1024

*** ChampSim Multicore Out-of-Order Simulator ***

Warmup Instructions: 50000000
Simulation Instructions: 50000000
Number of CPUs: 1
LLC sets: 2048
LLC ways: 16
Off-chip DRAM Size: 4096 MB Channels: 1 Width: 64-bit Data Rate: 3200 MT/s

CPU 0 runs /home/mbaradaran/ChampSim/dpc3_traces/server_031.champsimtrace.xz
CPU 0 L1D next line prefetcher
Heartbeat CPU 0 instructions: 10000003 cycles: 3532922 heartbeat IPC: 2.83052 cumulative IPC: 2.83052 (Simulation time: 0 hr 1 min 52 sec) 
Heartbeat CPU 0 instructions: 20000002 cycles: 7065450 heartbeat IPC: 2.83083 cumulative IPC: 2.83068 (Simulation time: 0 hr 3 min 32 sec) 
Heartbeat CPU 0 instructions: 30000002 cycles: 10597800 heartbeat IPC: 2.83098 cumulative IPC: 2.83078 (Simulation time: 0 hr 5 min 17 sec) 
Heartbeat CPU 0 instructions: 40000003 cycles: 14126033 heartbeat IPC: 2.83428 cumulative IPC: 2.83165 (Simulation time: 0 hr 6 min 59 sec) 
Heartbeat CPU 0 instructions: 50000000 cycles: 17656733 heartbeat IPC: 2.8323 cumulative IPC: 2.83178 (Simulation time: 0 hr 8 min 32 sec) 

Warmup complete CPU 0 instructions: 50000004 cycles: 17656734 (Simulation time: 0 hr 8 min 32 sec) 

Heartbeat CPU 0 instructions: 60000000 cycles: 29576170 heartbeat IPC: 0.838966 cumulative IPC: 0.838966 (Simulation time: 0 hr 9 min 47 sec) 
Heartbeat CPU 0 instructions: 70000002 cycles: 41612415 heartbeat IPC: 0.830824 cumulative IPC: 0.834875 (Simulation time: 0 hr 11 min 0 sec) 
*** Reached end of trace for Core: 0 Repeating trace: /home/mbaradaran/ChampSim/dpc3_traces/server_031.champsimtrace.xz
Heartbeat CPU 0 instructions: 80000000 cycles: 53410845 heartbeat IPC: 0.84757 cumulative IPC: 0.839064 (Simulation time: 0 hr 12 min 15 sec) 
Heartbeat CPU 0 instructions: 90000001 cycles: 65287633 heartbeat IPC: 0.841979 cumulative IPC: 0.839791 (Simulation time: 0 hr 13 min 31 sec) 
Heartbeat CPU 0 instructions: 100000000 cycles: 77114740 heartbeat IPC: 0.845515 cumulative IPC: 0.84093 (Simulation time: 0 hr 14 min 39 sec) 
Finished CPU 0 instructions: 50000000 cycles: 59458011 cumulative IPC: 0.84093 (Simulation time: 0 hr 14 min 39 sec) 

ChampSim completed all CPUs

Region of Interest Statistics

CPU 0 cumulative IPC: 0.84093 instructions: 50000000 cycles: 59458011

SHEET
IPC : 0.84093

L1D TOTAL     ACCESS:   22629348  HIT:   20721625  MISS:    1907723
L1D LOAD      ACCESS:    8249243  HIT:    7392524  MISS:     856719
L1D RFO       ACCESS:    6437870  HIT:    6144200  MISS:     293670
L1D PREFETCH  ACCESS:    7942235  HIT:    7184901  MISS:     757334
L1D WRITEBACK ACCESS:          0  HIT:          0  MISS:          0
L1D PREFETCH  REQUESTED:    8313281  ISSUED:    8232189  USEFUL:     188601  USELESS:     568734
L1D AVERAGE MISS LATENCY: 21.7869 cycles
L1D

SHEET
L1D-total_access : 22629348
L1D-total_hit : 20721625
L1D-total_miss : 1907723
L1D-load_access : 8249243
L1D-load_hit : 7392524
L1D-load_miss : 856719
L1D-rfo_access : 6437870
L1D-rfo_hit : 6144200
L1D-rfo_miss : 293670
L1D-prefetch_access : 7942235
L1D-prefetch_hit : 7184901
L1D-prefetch_miss : 757334
L1D-writeback_access : 0
L1D-writeback_hit : 0
L1D-writeback_miss : 0
L1D-prefetch_requested : 8313281
L1D-prefetch_issued : 8232189
L1D-prefetch_useful : 188601
L1D-prefetch_useless : 568734
L1D-Avg_miss_latency : 21.7869

L1I TOTAL     ACCESS:    9479351  HIT:    6044605  MISS:    3434746
L1I LOAD      ACCESS:    9479351  HIT:    6044605  MISS:    3434746
L1I RFO       ACCESS:          0  HIT:          0  MISS:          0
L1I PREFETCH  ACCESS:          0  HIT:          0  MISS:          0
L1I WRITEBACK ACCESS:          0  HIT:          0  MISS:          0
L1I PREFETCH  REQUESTED:          0  ISSUED:          0  USEFUL:          0  USELESS:          0
L1I AVERAGE MISS LATENCY: 16.927 cycles
L1I

SHEET
L1I-total_access : 9479351
L1I-total_hit : 6044605
L1I-total_miss : 3434746
L1I-load_access : 9479351
L1I-load_hit : 6044605
L1I-load_miss : 3434746
L1I-rfo_access : 0
L1I-rfo_hit : 0
L1I-rfo_miss : 0
L1I-prefetch_access : 0
L1I-prefetch_hit : 0
L1I-prefetch_miss : 0
L1I-writeback_access : 0
L1I-writeback_hit : 0
L1I-writeback_miss : 0
L1I-prefetch_requested : 0
L1I-prefetch_issued : 0
L1I-prefetch_useful : 0
L1I-prefetch_useless : 0
L1I-Avg_miss_latency : 16.927

L2C TOTAL     ACCESS:    9024779  HIT:    8441965  MISS:     582814
L2C LOAD      ACCESS:    4215575  HIT:    3796739  MISS:     418836
L2C RFO       ACCESS:     290198  HIT:     252396  MISS:      37802
L2C PREFETCH  ACCESS:    3902054  HIT:    3776445  MISS:     125609
L2C WRITEBACK ACCESS:     616952  HIT:     616385  MISS:        567
L2C PREFETCH  REQUESTED:    5935902  ISSUED:    5935784  USEFUL:       5623  USELESS:     119840
L2C AVERAGE MISS LATENCY: 42.6967 cycles
L2C

SHEET
L2C-total_access : 9024779
L2C-total_hit : 8441965
L2C-total_miss : 582814
L2C-load_access : 4215575
L2C-load_hit : 3796739
L2C-load_miss : 418836
L2C-rfo_access : 290198
L2C-rfo_hit : 252396
L2C-rfo_miss : 37802
L2C-prefetch_access : 3902054
L2C-prefetch_hit : 3776445
L2C-prefetch_miss : 125609
L2C-writeback_access : 616952
L2C-writeback_hit : 616385
L2C-writeback_miss : 567
L2C-prefetch_requested : 5935902
L2C-prefetch_issued : 5935784
L2C-prefetch_useful : 5623
L2C-prefetch_useless : 119840
L2C-Avg_miss_latency : 42.6967

LLC TOTAL     ACCESS:    2618449  HIT:    2537806  MISS:      80643
LLC LOAD      ACCESS:     416817  HIT:     396522  MISS:      20295
LLC RFO       ACCESS:      37802  HIT:      33589  MISS:       4213
LLC PREFETCH  ACCESS:    2091227  HIT:    2035680  MISS:      55547
LLC WRITEBACK ACCESS:      72603  HIT:      72015  MISS:        588
LLC PREFETCH  REQUESTED:          0  ISSUED:          0  USEFUL:       3102  USELESS:      51809
LLC AVERAGE MISS LATENCY: 157.069 cycles
LLC

SHEET
LLC-total_access : 2618449
LLC-total_hit : 2537806
LLC-total_miss : 80643
LLC-load_access : 416817
LLC-load_hit : 396522
LLC-load_miss : 20295
LLC-rfo_access : 37802
LLC-rfo_hit : 33589
LLC-rfo_miss : 4213
LLC-prefetch_access : 2091227
LLC-prefetch_hit : 2035680
LLC-prefetch_miss : 55547
LLC-writeback_access : 72603
LLC-writeback_hit : 72015
LLC-writeback_miss : 588
LLC-prefetch_requested : 0
LLC-prefetch_issued : 0
LLC-prefetch_useful : 3102
LLC-prefetch_useless : 51809
LLC-Avg_miss_latency : 157.069

Major fault: 0 Minor fault: 6041
CPU 0 L1D next line prefetcher final stats

DRAM Statistics
 CHANNEL 0
 RQ ROW_BUFFER_HIT:      22643  ROW_BUFFER_MISS:      57404
 DBUS_CONGESTED:      32991
 WQ ROW_BUFFER_HIT:        778  ROW_BUFFER_MISS:       5290  FULL:          0

 AVG_CONGESTED_CYCLE: 5

CPU 0 Branch Prediction Accuracy: 99.6894% MPKI: 0.58048 Average ROB Occupancy at Mispredict: 96.1958

Branch types
NOT_BRANCH: 40655542 81.3111%
BRANCH_DIRECT_JUMP: 546483 1.09297%
BRANCH_INDIRECT: 172433 0.344866%
BRANCH_CONDITIONAL: 6207562 12.4151%
BRANCH_DIRECT_CALL: 1018498 2.037%
BRANCH_INDIRECT_CALL: 190373 0.380746%
BRANCH_RETURN: 1208855 2.41771%
BRANCH_OTHER: 0 0%

