Initialize SIGNATURE TABLE
ST_SET: 1
ST_WAY: 256
ST_TAG_BIT: 16
ST_TAG_MASK: ffff

Initialize PATTERN TABLE
PT_SET: 512
PT_WAY: 4
SIG_DELTA_BIT: 7
C_SIG_BIT: 4
C_DELTA_BIT: 4

Initialize PREFETCH FILTER
FILTER_SET: 1024

*** ChampSim Multicore Out-of-Order Simulator ***

Warmup Instructions: 50000000
Simulation Instructions: 50000000
Number of CPUs: 1
LLC sets: 2048
LLC ways: 16
Off-chip DRAM Size: 4096 MB Channels: 1 Width: 64-bit Data Rate: 3200 MT/s

CPU 0 runs /home/mbaradaran/ChampSim/dpc3_traces/server_002.champsimtrace.xz
CPU 0 L1D next line prefetcher
Heartbeat CPU 0 instructions: 10000000 cycles: 3581262 heartbeat IPC: 2.79231 cumulative IPC: 2.79231 (Simulation time: 0 hr 1 min 34 sec) 
Heartbeat CPU 0 instructions: 20000002 cycles: 7170315 heartbeat IPC: 2.78625 cumulative IPC: 2.78928 (Simulation time: 0 hr 3 min 21 sec) 
Heartbeat CPU 0 instructions: 30000000 cycles: 10711072 heartbeat IPC: 2.82425 cumulative IPC: 2.80084 (Simulation time: 0 hr 5 min 1 sec) 
Heartbeat CPU 0 instructions: 40000000 cycles: 14261317 heartbeat IPC: 2.81671 cumulative IPC: 2.80479 (Simulation time: 0 hr 6 min 45 sec) 
Heartbeat CPU 0 instructions: 50000001 cycles: 17809088 heartbeat IPC: 2.81867 cumulative IPC: 2.80756 (Simulation time: 0 hr 8 min 25 sec) 

Warmup complete CPU 0 instructions: 50000001 cycles: 17809088 (Simulation time: 0 hr 8 min 25 sec) 

Heartbeat CPU 0 instructions: 60000001 cycles: 27835602 heartbeat IPC: 0.997356 cumulative IPC: 0.997356 (Simulation time: 0 hr 9 min 35 sec) 
Heartbeat CPU 0 instructions: 70000003 cycles: 37862220 heartbeat IPC: 0.997345 cumulative IPC: 0.997351 (Simulation time: 0 hr 10 min 40 sec) 
Heartbeat CPU 0 instructions: 80000003 cycles: 47886796 heartbeat IPC: 0.997548 cumulative IPC: 0.997416 (Simulation time: 0 hr 11 min 55 sec) 
Heartbeat CPU 0 instructions: 90000002 cycles: 57916882 heartbeat IPC: 0.997 cumulative IPC: 0.997312 (Simulation time: 0 hr 13 min 1 sec) 
Heartbeat CPU 0 instructions: 100000003 cycles: 67941883 heartbeat IPC: 0.997506 cumulative IPC: 0.997351 (Simulation time: 0 hr 14 min 10 sec) 
Finished CPU 0 instructions: 50000002 cycles: 50132795 cumulative IPC: 0.997351 (Simulation time: 0 hr 14 min 10 sec) 

ChampSim completed all CPUs

Region of Interest Statistics

CPU 0 cumulative IPC: 0.997351 instructions: 50000002 cycles: 50132795

SHEET
IPC : 0.997351

L1D TOTAL     ACCESS:   24094536  HIT:   24093726  MISS:        810
L1D LOAD      ACCESS:    7837326  HIT:    7836952  MISS:        374
L1D RFO       ACCESS:    8523083  HIT:    8522969  MISS:        114
L1D PREFETCH  ACCESS:    7734127  HIT:    7733805  MISS:        322
L1D WRITEBACK ACCESS:          0  HIT:          0  MISS:          0
L1D PREFETCH  REQUESTED:    7837385  ISSUED:    7744681  USEFUL:         94  USELESS:        230
L1D AVERAGE MISS LATENCY: 30.3914 cycles
L1D

SHEET
L1D-total_access : 24094536
L1D-total_hit : 24093726
L1D-total_miss : 810
L1D-load_access : 7837326
L1D-load_hit : 7836952
L1D-load_miss : 374
L1D-rfo_access : 8523083
L1D-rfo_hit : 8522969
L1D-rfo_miss : 114
L1D-prefetch_access : 7734127
L1D-prefetch_hit : 7733805
L1D-prefetch_miss : 322
L1D-writeback_access : 0
L1D-writeback_hit : 0
L1D-writeback_miss : 0
L1D-prefetch_requested : 7837385
L1D-prefetch_issued : 7744681
L1D-prefetch_useful : 94
L1D-prefetch_useless : 230
L1D-Avg_miss_latency : 30.3914

L1I TOTAL     ACCESS:    9679795  HIT:    6478810  MISS:    3200985
L1I LOAD      ACCESS:    9679795  HIT:    6478810  MISS:    3200985
L1I RFO       ACCESS:          0  HIT:          0  MISS:          0
L1I PREFETCH  ACCESS:          0  HIT:          0  MISS:          0
L1I WRITEBACK ACCESS:          0  HIT:          0  MISS:          0
L1I PREFETCH  REQUESTED:          0  ISSUED:          0  USEFUL:          0  USELESS:          0
L1I AVERAGE MISS LATENCY: 14.0651 cycles
L1I

SHEET
L1I-total_access : 9679795
L1I-total_hit : 6478810
L1I-total_miss : 3200985
L1I-load_access : 9679795
L1I-load_hit : 6478810
L1I-load_miss : 3200985
L1I-rfo_access : 0
L1I-rfo_hit : 0
L1I-rfo_miss : 0
L1I-prefetch_access : 0
L1I-prefetch_hit : 0
L1I-prefetch_miss : 0
L1I-writeback_access : 0
L1I-writeback_hit : 0
L1I-writeback_miss : 0
L1I-prefetch_requested : 0
L1I-prefetch_issued : 0
L1I-prefetch_useful : 0
L1I-prefetch_useless : 0
L1I-Avg_miss_latency : 14.0651

L2C TOTAL     ACCESS:    5460654  HIT:    5460399  MISS:        255
L2C LOAD      ACCESS:    3201345  HIT:    3201244  MISS:        101
L2C RFO       ACCESS:        113  HIT:        111  MISS:          2
L2C PREFETCH  ACCESS:    2258859  HIT:    2258708  MISS:        151
L2C WRITEBACK ACCESS:        337  HIT:        336  MISS:          1
L2C PREFETCH  REQUESTED:    3911813  ISSUED:    3911813  USEFUL:         43  USELESS:         95
L2C AVERAGE MISS LATENCY: 74.2353 cycles
L2C

SHEET
L2C-total_access : 5460654
L2C-total_hit : 5460399
L2C-total_miss : 255
L2C-load_access : 3201345
L2C-load_hit : 3201244
L2C-load_miss : 101
L2C-rfo_access : 113
L2C-rfo_hit : 111
L2C-rfo_miss : 2
L2C-prefetch_access : 2258859
L2C-prefetch_hit : 2258708
L2C-prefetch_miss : 151
L2C-writeback_access : 337
L2C-writeback_hit : 336
L2C-writeback_miss : 1
L2C-prefetch_requested : 3911813
L2C-prefetch_issued : 3911813
L2C-prefetch_useful : 43
L2C-prefetch_useless : 95
L2C-Avg_miss_latency : 74.2353

LLC TOTAL     ACCESS:     818468  HIT:     818029  MISS:        439
LLC LOAD      ACCESS:        100  HIT:         83  MISS:         17
LLC RFO       ACCESS:          2  HIT:          0  MISS:          2
LLC PREFETCH  ACCESS:     818274  HIT:     817858  MISS:        416
LLC WRITEBACK ACCESS:         92  HIT:         88  MISS:          4
LLC PREFETCH  REQUESTED:          0  ISSUED:          0  USEFUL:         15  USELESS:         95
LLC AVERAGE MISS LATENCY: 181.082 cycles
LLC

SHEET
LLC-total_access : 818468
LLC-total_hit : 818029
LLC-total_miss : 439
LLC-load_access : 100
LLC-load_hit : 83
LLC-load_miss : 17
LLC-rfo_access : 2
LLC-rfo_hit : 0
LLC-rfo_miss : 2
LLC-prefetch_access : 818274
LLC-prefetch_hit : 817858
LLC-prefetch_miss : 416
LLC-writeback_access : 92
LLC-writeback_hit : 88
LLC-writeback_miss : 4
LLC-prefetch_requested : 0
LLC-prefetch_issued : 0
LLC-prefetch_useful : 15
LLC-prefetch_useless : 95
LLC-Avg_miss_latency : 181.082

Major fault: 0 Minor fault: 1867
CPU 0 L1D next line prefetcher final stats

DRAM Statistics
 CHANNEL 0
 RQ ROW_BUFFER_HIT:         61  ROW_BUFFER_MISS:        374
 DBUS_CONGESTED:        249
 WQ ROW_BUFFER_HIT:         58  ROW_BUFFER_MISS:        246  FULL:          0

 AVG_CONGESTED_CYCLE: 6

CPU 0 Branch Prediction Accuracy: 99.8789% MPKI: 0.20388 Average ROB Occupancy at Mispredict: 11.3353

Branch types
NOT_BRANCH: 41580649 83.1613%
BRANCH_DIRECT_JUMP: 461627 0.923254%
BRANCH_INDIRECT: 0 0%
BRANCH_CONDITIONAL: 5376428 10.7529%
BRANCH_DIRECT_CALL: 1175774 2.35155%
BRANCH_INDIRECT_CALL: 114840 0.22968%
BRANCH_RETURN: 1290622 2.58124%
BRANCH_OTHER: 0 0%

