Initialize SIGNATURE TABLE
ST_SET: 1
ST_WAY: 256
ST_TAG_BIT: 16
ST_TAG_MASK: ffff

Initialize PATTERN TABLE
PT_SET: 512
PT_WAY: 4
SIG_DELTA_BIT: 7
C_SIG_BIT: 4
C_DELTA_BIT: 4

Initialize PREFETCH FILTER
FILTER_SET: 1024

*** ChampSim Multicore Out-of-Order Simulator ***

Warmup Instructions: 50000000
Simulation Instructions: 50000000
Number of CPUs: 1
LLC sets: 2048
LLC ways: 16
Off-chip DRAM Size: 4096 MB Channels: 1 Width: 64-bit Data Rate: 3200 MT/s

CPU 0 runs /home/mbaradaran/ChampSim/dpc3_traces/spec_gobmk_001.champsimtrace.xz
CPU 0 L1D next line prefetcher
Heartbeat CPU 0 instructions: 10000003 cycles: 3506772 heartbeat IPC: 2.85163 cumulative IPC: 2.85163 (Simulation time: 0 hr 1 min 22 sec) 
Heartbeat CPU 0 instructions: 20000002 cycles: 6987144 heartbeat IPC: 2.87326 cumulative IPC: 2.8624 (Simulation time: 0 hr 2 min 40 sec) 
Heartbeat CPU 0 instructions: 30000002 cycles: 10505942 heartbeat IPC: 2.84188 cumulative IPC: 2.85553 (Simulation time: 0 hr 3 min 49 sec) 
Heartbeat CPU 0 instructions: 40000001 cycles: 14025006 heartbeat IPC: 2.84166 cumulative IPC: 2.85205 (Simulation time: 0 hr 4 min 54 sec) 
Heartbeat CPU 0 instructions: 50000001 cycles: 17565029 heartbeat IPC: 2.82484 cumulative IPC: 2.84657 (Simulation time: 0 hr 5 min 56 sec) 

Warmup complete CPU 0 instructions: 50000001 cycles: 17565029 (Simulation time: 0 hr 5 min 56 sec) 

Heartbeat CPU 0 instructions: 60000000 cycles: 28247940 heartbeat IPC: 0.936074 cumulative IPC: 0.936074 (Simulation time: 0 hr 6 min 46 sec) 
Heartbeat CPU 0 instructions: 70000002 cycles: 38873158 heartbeat IPC: 0.941157 cumulative IPC: 0.938609 (Simulation time: 0 hr 7 min 42 sec) 
Heartbeat CPU 0 instructions: 80000003 cycles: 49358769 heartbeat IPC: 0.953688 cumulative IPC: 0.943582 (Simulation time: 0 hr 8 min 38 sec) 
Heartbeat CPU 0 instructions: 90000001 cycles: 59173964 heartbeat IPC: 1.01883 cumulative IPC: 0.961332 (Simulation time: 0 hr 9 min 30 sec) 
Heartbeat CPU 0 instructions: 100000000 cycles: 69776990 heartbeat IPC: 0.943127 cumulative IPC: 0.957635 (Simulation time: 0 hr 10 min 16 sec) 
Finished CPU 0 instructions: 50000002 cycles: 52211962 cumulative IPC: 0.957635 (Simulation time: 0 hr 10 min 16 sec) 

ChampSim completed all CPUs

Region of Interest Statistics

CPU 0 cumulative IPC: 0.957635 instructions: 50000002 cycles: 52211962

SHEET
IPC : 0.957635

L1D TOTAL     ACCESS:   18507169  HIT:   18127412  MISS:     379757
L1D LOAD      ACCESS:    7461868  HIT:    7327041  MISS:     134827
L1D RFO       ACCESS:    3722529  HIT:    3618340  MISS:     104189
L1D PREFETCH  ACCESS:    7322772  HIT:    7182031  MISS:     140741
L1D WRITEBACK ACCESS:          0  HIT:          0  MISS:          0
L1D PREFETCH  REQUESTED:    7465957  ISSUED:    7382469  USEFUL:      45946  USELESS:      94800
L1D AVERAGE MISS LATENCY: 33.3417 cycles
L1D

SHEET
L1D-total_access : 18507169
L1D-total_hit : 18127412
L1D-total_miss : 379757
L1D-load_access : 7461868
L1D-load_hit : 7327041
L1D-load_miss : 134827
L1D-rfo_access : 3722529
L1D-rfo_hit : 3618340
L1D-rfo_miss : 104189
L1D-prefetch_access : 7322772
L1D-prefetch_hit : 7182031
L1D-prefetch_miss : 140741
L1D-writeback_access : 0
L1D-writeback_hit : 0
L1D-writeback_miss : 0
L1D-prefetch_requested : 7465957
L1D-prefetch_issued : 7382469
L1D-prefetch_useful : 45946
L1D-prefetch_useless : 94800
L1D-Avg_miss_latency : 33.3417

L1I TOTAL     ACCESS:    9053643  HIT:    7819404  MISS:    1234239
L1I LOAD      ACCESS:    9053643  HIT:    7819404  MISS:    1234239
L1I RFO       ACCESS:          0  HIT:          0  MISS:          0
L1I PREFETCH  ACCESS:          0  HIT:          0  MISS:          0
L1I WRITEBACK ACCESS:          0  HIT:          0  MISS:          0
L1I PREFETCH  REQUESTED:          0  ISSUED:          0  USEFUL:          0  USELESS:          0
L1I AVERAGE MISS LATENCY: 14.5698 cycles
L1I

SHEET
L1I-total_access : 9053643
L1I-total_hit : 7819404
L1I-total_miss : 1234239
L1I-load_access : 9053643
L1I-load_hit : 7819404
L1I-load_miss : 1234239
L1I-rfo_access : 0
L1I-rfo_hit : 0
L1I-rfo_miss : 0
L1I-prefetch_access : 0
L1I-prefetch_hit : 0
L1I-prefetch_miss : 0
L1I-writeback_access : 0
L1I-writeback_hit : 0
L1I-writeback_miss : 0
L1I-prefetch_requested : 0
L1I-prefetch_issued : 0
L1I-prefetch_useful : 0
L1I-prefetch_useless : 0
L1I-Avg_miss_latency : 14.5698

L2C TOTAL     ACCESS:    3074386  HIT:    2951805  MISS:     122581
L2C LOAD      ACCESS:    1344905  HIT:    1300766  MISS:      44139
L2C RFO       ACCESS:     103921  HIT:      70219  MISS:      33702
L2C PREFETCH  ACCESS:    1486251  HIT:    1441566  MISS:      44685
L2C WRITEBACK ACCESS:     139309  HIT:     139254  MISS:         55
L2C PREFETCH  REQUESTED:    1624728  ISSUED:    1624686  USEFUL:       3395  USELESS:      41366
L2C AVERAGE MISS LATENCY: 64.7173 cycles
L2C

SHEET
L2C-total_access : 3074386
L2C-total_hit : 2951805
L2C-total_miss : 122581
L2C-load_access : 1344905
L2C-load_hit : 1300766
L2C-load_miss : 44139
L2C-rfo_access : 103921
L2C-rfo_hit : 70219
L2C-rfo_miss : 33702
L2C-prefetch_access : 1486251
L2C-prefetch_hit : 1441566
L2C-prefetch_miss : 44685
L2C-writeback_access : 139309
L2C-writeback_hit : 139254
L2C-writeback_miss : 55
L2C-prefetch_requested : 1624728
L2C-prefetch_issued : 1624686
L2C-prefetch_useful : 3395
L2C-prefetch_useless : 41366
L2C-Avg_miss_latency : 64.7173

LLC TOTAL     ACCESS:     311579  HIT:     275212  MISS:      36367
LLC LOAD      ACCESS:      44135  HIT:      35544  MISS:       8591
LLC RFO       ACCESS:      33702  HIT:      26737  MISS:       6965
LLC PREFETCH  ACCESS:     189285  HIT:     168777  MISS:      20508
LLC WRITEBACK ACCESS:      44457  HIT:      44154  MISS:        303
LLC PREFETCH  REQUESTED:          0  ISSUED:          0  USEFUL:       1548  USELESS:      17742
LLC AVERAGE MISS LATENCY: 178.168 cycles
LLC

SHEET
LLC-total_access : 311579
LLC-total_hit : 275212
LLC-total_miss : 36367
LLC-load_access : 44135
LLC-load_hit : 35544
LLC-load_miss : 8591
LLC-rfo_access : 33702
LLC-rfo_hit : 26737
LLC-rfo_miss : 6965
LLC-prefetch_access : 189285
LLC-prefetch_hit : 168777
LLC-prefetch_miss : 20508
LLC-writeback_access : 44457
LLC-writeback_hit : 44154
LLC-writeback_miss : 303
LLC-prefetch_requested : 0
LLC-prefetch_issued : 0
LLC-prefetch_useful : 1548
LLC-prefetch_useless : 17742
LLC-Avg_miss_latency : 178.168

Major fault: 0 Minor fault: 4156
CPU 0 L1D next line prefetcher final stats

DRAM Statistics
 CHANNEL 0
 RQ ROW_BUFFER_HIT:       4876  ROW_BUFFER_MISS:      31188
 DBUS_CONGESTED:      21029
 WQ ROW_BUFFER_HIT:       1440  ROW_BUFFER_MISS:      14820  FULL:          0

 AVG_CONGESTED_CYCLE: 4

CPU 0 Branch Prediction Accuracy: 94.7729% MPKI: 9.72684 Average ROB Occupancy at Mispredict: 43.6956

Branch types
NOT_BRANCH: 40695354 81.3907%
BRANCH_DIRECT_JUMP: 422107 0.844214%
BRANCH_INDIRECT: 65 0.00013%
BRANCH_CONDITIONAL: 8105001 16.21%
BRANCH_DIRECT_CALL: 374912 0.749824%
BRANCH_INDIRECT_CALL: 13657 0.027314%
BRANCH_RETURN: 388556 0.777112%
BRANCH_OTHER: 0 0%

