Initialize SIGNATURE TABLE
ST_SET: 1
ST_WAY: 256
ST_TAG_BIT: 16
ST_TAG_MASK: ffff

Initialize PATTERN TABLE
PT_SET: 512
PT_WAY: 4
SIG_DELTA_BIT: 7
C_SIG_BIT: 4
C_DELTA_BIT: 4

Initialize PREFETCH FILTER
FILTER_SET: 1024

*** ChampSim Multicore Out-of-Order Simulator ***

Warmup Instructions: 50000000
Simulation Instructions: 50000000
Number of CPUs: 1
LLC sets: 2048
LLC ways: 16
Off-chip DRAM Size: 4096 MB Channels: 1 Width: 64-bit Data Rate: 3200 MT/s

CPU 0 runs /home/mbaradaran/ChampSim/dpc3_traces/spec_gcc_002.champsimtrace.xz
CPU 0 L1D next line prefetcher
Heartbeat CPU 0 instructions: 10000002 cycles: 3551561 heartbeat IPC: 2.81566 cumulative IPC: 2.81566 (Simulation time: 0 hr 1 min 34 sec) 
Heartbeat CPU 0 instructions: 20000000 cycles: 7136075 heartbeat IPC: 2.78978 cumulative IPC: 2.80266 (Simulation time: 0 hr 2 min 55 sec) 
Heartbeat CPU 0 instructions: 30000000 cycles: 10726106 heartbeat IPC: 2.78549 cumulative IPC: 2.79691 (Simulation time: 0 hr 4 min 15 sec) 
Heartbeat CPU 0 instructions: 40000000 cycles: 14287081 heartbeat IPC: 2.80822 cumulative IPC: 2.79973 (Simulation time: 0 hr 5 min 40 sec) 
Heartbeat CPU 0 instructions: 50000002 cycles: 17785768 heartbeat IPC: 2.85822 cumulative IPC: 2.81124 (Simulation time: 0 hr 7 min 0 sec) 

Warmup complete CPU 0 instructions: 50000002 cycles: 17785768 (Simulation time: 0 hr 7 min 0 sec) 

Heartbeat CPU 0 instructions: 60000001 cycles: 59617152 heartbeat IPC: 0.239055 cumulative IPC: 0.239055 (Simulation time: 0 hr 9 min 51 sec) 
Heartbeat CPU 0 instructions: 70000001 cycles: 93289042 heartbeat IPC: 0.296984 cumulative IPC: 0.264889 (Simulation time: 0 hr 11 min 52 sec) 
Heartbeat CPU 0 instructions: 80000002 cycles: 144312641 heartbeat IPC: 0.195988 cumulative IPC: 0.237104 (Simulation time: 0 hr 14 min 25 sec) 
Heartbeat CPU 0 instructions: 90000001 cycles: 191035705 heartbeat IPC: 0.214027 cumulative IPC: 0.23088 (Simulation time: 0 hr 16 min 49 sec) 
Heartbeat CPU 0 instructions: 100000000 cycles: 224778430 heartbeat IPC: 0.29636 cumulative IPC: 0.241554 (Simulation time: 0 hr 18 min 44 sec) 
Finished CPU 0 instructions: 50000002 cycles: 206992670 cumulative IPC: 0.241554 (Simulation time: 0 hr 18 min 44 sec) 

ChampSim completed all CPUs

Region of Interest Statistics

CPU 0 cumulative IPC: 0.241554 instructions: 50000002 cycles: 206992670

SHEET
IPC : 0.241554

L1D TOTAL     ACCESS:   18993973  HIT:   13759673  MISS:    5234300
L1D LOAD      ACCESS:    6707538  HIT:    5653662  MISS:    1053876
L1D RFO       ACCESS:    7080395  HIT:    3479355  MISS:    3601040
L1D PREFETCH  ACCESS:    5206040  HIT:    4626656  MISS:     579384
L1D WRITEBACK ACCESS:          0  HIT:          0  MISS:          0
L1D PREFETCH  REQUESTED:    6728434  ISSUED:    6663399  USEFUL:     419174  USELESS:     160426
L1D AVERAGE MISS LATENCY: 331.695 cycles
L1D

SHEET
L1D-total_access : 18993973
L1D-total_hit : 13759673
L1D-total_miss : 5234300
L1D-load_access : 6707538
L1D-load_hit : 5653662
L1D-load_miss : 1053876
L1D-rfo_access : 7080395
L1D-rfo_hit : 3479355
L1D-rfo_miss : 3601040
L1D-prefetch_access : 5206040
L1D-prefetch_hit : 4626656
L1D-prefetch_miss : 579384
L1D-writeback_access : 0
L1D-writeback_hit : 0
L1D-writeback_miss : 0
L1D-prefetch_requested : 6728434
L1D-prefetch_issued : 6663399
L1D-prefetch_useful : 419174
L1D-prefetch_useless : 160426
L1D-Avg_miss_latency : 331.695

L1I TOTAL     ACCESS:   12143945  HIT:   11239027  MISS:     904918
L1I LOAD      ACCESS:   12143945  HIT:   11239027  MISS:     904918
L1I RFO       ACCESS:          0  HIT:          0  MISS:          0
L1I PREFETCH  ACCESS:          0  HIT:          0  MISS:          0
L1I WRITEBACK ACCESS:          0  HIT:          0  MISS:          0
L1I PREFETCH  REQUESTED:          0  ISSUED:          0  USEFUL:          0  USELESS:          0
L1I AVERAGE MISS LATENCY: 45.5736 cycles
L1I

SHEET
L1I-total_access : 12143945
L1I-total_hit : 11239027
L1I-total_miss : 904918
L1I-load_access : 12143945
L1I-load_hit : 11239027
L1I-load_miss : 904918
L1I-rfo_access : 0
L1I-rfo_hit : 0
L1I-rfo_miss : 0
L1I-prefetch_access : 0
L1I-prefetch_hit : 0
L1I-prefetch_miss : 0
L1I-writeback_access : 0
L1I-writeback_hit : 0
L1I-writeback_miss : 0
L1I-prefetch_requested : 0
L1I-prefetch_issued : 0
L1I-prefetch_useful : 0
L1I-prefetch_useless : 0
L1I-Avg_miss_latency : 45.5736

L2C TOTAL     ACCESS:   10524387  HIT:    5255719  MISS:    5268668
L2C LOAD      ACCESS:    1158718  HIT:     761237  MISS:     397481
L2C RFO       ACCESS:    3599566  HIT:      12683  MISS:    3586883
L2C PREFETCH  ACCESS:    2040508  HIT:     756291  MISS:    1284217
L2C WRITEBACK ACCESS:    3725595  HIT:    3725508  MISS:         87
L2C PREFETCH  REQUESTED:    3154189  ISSUED:    3154188  USEFUL:      17299  USELESS:    1267026
L2C AVERAGE MISS LATENCY: 339.431 cycles
L2C

SHEET
L2C-total_access : 10524387
L2C-total_hit : 5255719
L2C-total_miss : 5268668
L2C-load_access : 1158718
L2C-load_hit : 761237
L2C-load_miss : 397481
L2C-rfo_access : 3599566
L2C-rfo_hit : 12683
L2C-rfo_miss : 3586883
L2C-prefetch_access : 2040508
L2C-prefetch_hit : 756291
L2C-prefetch_miss : 1284217
L2C-writeback_access : 3725595
L2C-writeback_hit : 3725508
L2C-writeback_miss : 87
L2C-prefetch_requested : 3154189
L2C-prefetch_issued : 3154188
L2C-prefetch_useful : 17299
L2C-prefetch_useless : 1267026
L2C-Avg_miss_latency : 339.431

LLC TOTAL     ACCESS:   10010086  HIT:    6156810  MISS:    3853276
LLC LOAD      ACCESS:     397224  HIT:     236975  MISS:     160249
LLC RFO       ACCESS:    3586884  HIT:     602338  MISS:    2984546
LLC PREFETCH  ACCESS:    2359747  HIT:    1651266  MISS:     708481
LLC WRITEBACK ACCESS:    3666231  HIT:    3666231  MISS:          0
LLC PREFETCH  REQUESTED:          0  ISSUED:          0  USEFUL:     181517  USELESS:     522366
LLC AVERAGE MISS LATENCY: 444.921 cycles
LLC

SHEET
LLC-total_access : 10010086
LLC-total_hit : 6156810
LLC-total_miss : 3853276
LLC-load_access : 397224
LLC-load_hit : 236975
LLC-load_miss : 160249
LLC-rfo_access : 3586885
LLC-rfo_hit : 602338
LLC-rfo_miss : 2984547
LLC-prefetch_access : 2359747
LLC-prefetch_hit : 1651266
LLC-prefetch_miss : 708481
LLC-writeback_access : 3666231
LLC-writeback_hit : 3666231
LLC-writeback_miss : 0
LLC-prefetch_requested : 0
LLC-prefetch_issued : 0
LLC-prefetch_useful : 181517
LLC-prefetch_useless : 522366
LLC-Avg_miss_latency : 444.921

Major fault: 0 Minor fault: 4152
CPU 0 L1D next line prefetcher final stats

DRAM Statistics
 CHANNEL 0
 RQ ROW_BUFFER_HIT:    1006918  ROW_BUFFER_MISS:    2843614
 DBUS_CONGESTED:    5487543
 WQ ROW_BUFFER_HIT:     967039  ROW_BUFFER_MISS:    2194949  FULL:          0

 AVG_CONGESTED_CYCLE: 6

CPU 0 Branch Prediction Accuracy: 99.5987% MPKI: 0.82446 Average ROB Occupancy at Mispredict: 79.5604

Branch types
NOT_BRANCH: 39726808 79.4536%
BRANCH_DIRECT_JUMP: 391439 0.782878%
BRANCH_INDIRECT: 62076 0.124152%
BRANCH_CONDITIONAL: 8421542 16.8431%
BRANCH_DIRECT_CALL: 672962 1.34592%
BRANCH_INDIRECT_CALL: 26115 0.05223%
BRANCH_RETURN: 699082 1.39816%
BRANCH_OTHER: 0 0%

