Initialize SIGNATURE TABLE
ST_SET: 1
ST_WAY: 256
ST_TAG_BIT: 16
ST_TAG_MASK: ffff

Initialize PATTERN TABLE
PT_SET: 512
PT_WAY: 4
SIG_DELTA_BIT: 7
C_SIG_BIT: 4
C_DELTA_BIT: 4

Initialize PREFETCH FILTER
FILTER_SET: 1024

*** ChampSim Multicore Out-of-Order Simulator ***

Warmup Instructions: 50000000
Simulation Instructions: 50000000
Number of CPUs: 1
LLC sets: 2048
LLC ways: 16
Off-chip DRAM Size: 4096 MB Channels: 1 Width: 64-bit Data Rate: 3200 MT/s

CPU 0 runs /home/mbaradaran/ChampSim/dpc3_traces/spec_gcc_003.champsimtrace.xz
CPU 0 L1D next line prefetcher
Heartbeat CPU 0 instructions: 10000001 cycles: 3487366 heartbeat IPC: 2.86749 cumulative IPC: 2.86749 (Simulation time: 0 hr 1 min 19 sec) 
Heartbeat CPU 0 instructions: 20000000 cycles: 6956007 heartbeat IPC: 2.88297 cumulative IPC: 2.87521 (Simulation time: 0 hr 2 min 38 sec) 
Heartbeat CPU 0 instructions: 30000002 cycles: 10399786 heartbeat IPC: 2.90379 cumulative IPC: 2.88468 (Simulation time: 0 hr 3 min 44 sec) 
Heartbeat CPU 0 instructions: 40000000 cycles: 13868299 heartbeat IPC: 2.88308 cumulative IPC: 2.88428 (Simulation time: 0 hr 4 min 52 sec) 
Heartbeat CPU 0 instructions: 50000001 cycles: 17179985 heartbeat IPC: 3.01961 cumulative IPC: 2.91036 (Simulation time: 0 hr 6 min 10 sec) 

Warmup complete CPU 0 instructions: 50000001 cycles: 17179985 (Simulation time: 0 hr 6 min 10 sec) 

Heartbeat CPU 0 instructions: 60000000 cycles: 60097373 heartbeat IPC: 0.233006 cumulative IPC: 0.233006 (Simulation time: 0 hr 8 min 48 sec) 
Heartbeat CPU 0 instructions: 70000000 cycles: 106236612 heartbeat IPC: 0.216735 cumulative IPC: 0.224576 (Simulation time: 0 hr 11 min 24 sec) 
Heartbeat CPU 0 instructions: 80000002 cycles: 152994082 heartbeat IPC: 0.21387 cumulative IPC: 0.22089 (Simulation time: 0 hr 13 min 48 sec) 
Heartbeat CPU 0 instructions: 90000002 cycles: 192716111 heartbeat IPC: 0.251749 cumulative IPC: 0.227873 (Simulation time: 0 hr 15 min 53 sec) 
Heartbeat CPU 0 instructions: 100000001 cycles: 241894061 heartbeat IPC: 0.203343 cumulative IPC: 0.222505 (Simulation time: 0 hr 18 min 23 sec) 
Finished CPU 0 instructions: 50000000 cycles: 224714076 cumulative IPC: 0.222505 (Simulation time: 0 hr 18 min 23 sec) 

ChampSim completed all CPUs

Region of Interest Statistics

CPU 0 cumulative IPC: 0.222505 instructions: 50000000 cycles: 224714076

SHEET
IPC : 0.222505

L1D TOTAL     ACCESS:   17819954  HIT:   12095063  MISS:    5724891
L1D LOAD      ACCESS:    5011469  HIT:    4630778  MISS:     380691
L1D RFO       ACCESS:    8277730  HIT:    3225690  MISS:    5052040
L1D PREFETCH  ACCESS:    4530755  HIT:    4238595  MISS:     292160
L1D WRITEBACK ACCESS:          0  HIT:          0  MISS:          0
L1D PREFETCH  REQUESTED:    5030792  ISSUED:    4973753  USEFUL:     154276  USELESS:     138064
L1D AVERAGE MISS LATENCY: 499.185 cycles
L1D

SHEET
L1D-total_access : 17819954
L1D-total_hit : 12095063
L1D-total_miss : 5724891
L1D-load_access : 5011469
L1D-load_hit : 4630778
L1D-load_miss : 380691
L1D-rfo_access : 8277730
L1D-rfo_hit : 3225690
L1D-rfo_miss : 5052040
L1D-prefetch_access : 4530755
L1D-prefetch_hit : 4238595
L1D-prefetch_miss : 292160
L1D-writeback_access : 0
L1D-writeback_hit : 0
L1D-writeback_miss : 0
L1D-prefetch_requested : 5030792
L1D-prefetch_issued : 4973753
L1D-prefetch_useful : 154276
L1D-prefetch_useless : 138064
L1D-Avg_miss_latency : 499.185

L1I TOTAL     ACCESS:   11341539  HIT:   10278457  MISS:    1063082
L1I LOAD      ACCESS:   11341539  HIT:   10278457  MISS:    1063082
L1I RFO       ACCESS:          0  HIT:          0  MISS:          0
L1I PREFETCH  ACCESS:          0  HIT:          0  MISS:          0
L1I WRITEBACK ACCESS:          0  HIT:          0  MISS:          0
L1I PREFETCH  REQUESTED:          0  ISSUED:          0  USEFUL:          0  USELESS:          0
L1I AVERAGE MISS LATENCY: 47.1616 cycles
L1I

SHEET
L1I-total_access : 11341539
L1I-total_hit : 10278457
L1I-total_miss : 1063082
L1I-load_access : 11341539
L1I-load_hit : 10278457
L1I-load_miss : 1063082
L1I-rfo_access : 0
L1I-rfo_hit : 0
L1I-rfo_miss : 0
L1I-prefetch_access : 0
L1I-prefetch_hit : 0
L1I-prefetch_miss : 0
L1I-writeback_access : 0
L1I-writeback_hit : 0
L1I-writeback_miss : 0
L1I-prefetch_requested : 0
L1I-prefetch_issued : 0
L1I-prefetch_useful : 0
L1I-prefetch_useless : 0
L1I-Avg_miss_latency : 47.1616

L2C TOTAL     ACCESS:   12564475  HIT:    6570578  MISS:    5993897
L2C LOAD      ACCESS:    1267734  HIT:     751121  MISS:     516613
L2C RFO       ACCESS:    5050417  HIT:       6634  MISS:    5043783
L2C PREFETCH  ACCESS:    1088341  HIT:     654992  MISS:     433349
L2C WRITEBACK ACCESS:    5157983  HIT:    5157831  MISS:        152
L2C PREFETCH  REQUESTED:    2087307  ISSUED:    2087307  USEFUL:      14411  USELESS:     415379
L2C AVERAGE MISS LATENCY: 469.987 cycles
L2C

SHEET
L2C-total_access : 12564475
L2C-total_hit : 6570578
L2C-total_miss : 5993897
L2C-load_access : 1267734
L2C-load_hit : 751121
L2C-load_miss : 516613
L2C-rfo_access : 5050417
L2C-rfo_hit : 6634
L2C-rfo_miss : 5043783
L2C-prefetch_access : 1088341
L2C-prefetch_hit : 654992
L2C-prefetch_miss : 433349
L2C-writeback_access : 5157983
L2C-writeback_hit : 5157831
L2C-writeback_miss : 152
L2C-prefetch_requested : 2087307
L2C-prefetch_issued : 2087307
L2C-prefetch_useful : 14411
L2C-prefetch_useless : 415379
L2C-Avg_miss_latency : 469.987

LLC TOTAL     ACCESS:   12001593  HIT:    7217397  MISS:    4784196
LLC LOAD      ACCESS:     516524  HIT:     364187  MISS:     152337
LLC RFO       ACCESS:    5043784  HIT:     615089  MISS:    4428695
LLC PREFETCH  ACCESS:    1307269  HIT:    1104105  MISS:     203164
LLC WRITEBACK ACCESS:    5134016  HIT:    5134016  MISS:          0
LLC PREFETCH  REQUESTED:          0  ISSUED:          0  USEFUL:      62502  USELESS:     140876
LLC AVERAGE MISS LATENCY: 559.271 cycles
LLC

SHEET
LLC-total_access : 12001593
LLC-total_hit : 7217397
LLC-total_miss : 4784196
LLC-load_access : 516524
LLC-load_hit : 364187
LLC-load_miss : 152337
LLC-rfo_access : 5043784
LLC-rfo_hit : 615089
LLC-rfo_miss : 4428695
LLC-prefetch_access : 1307269
LLC-prefetch_hit : 1104105
LLC-prefetch_miss : 203164
LLC-writeback_access : 5134017
LLC-writeback_hit : 5134017
LLC-writeback_miss : 0
LLC-prefetch_requested : 0
LLC-prefetch_issued : 0
LLC-prefetch_useful : 62502
LLC-prefetch_useless : 140876
LLC-Avg_miss_latency : 559.271

Major fault: 0 Minor fault: 2817
CPU 0 L1D next line prefetcher final stats

DRAM Statistics
 CHANNEL 0
 RQ ROW_BUFFER_HIT:    1448456  ROW_BUFFER_MISS:    3335699
 DBUS_CONGESTED:    8182436
 WQ ROW_BUFFER_HIT:    1225537  ROW_BUFFER_MISS:    3231839  FULL:          0

 AVG_CONGESTED_CYCLE: 6

CPU 0 Branch Prediction Accuracy: 99.665% MPKI: 0.78342 Average ROB Occupancy at Mispredict: 60.3964

Branch types
NOT_BRANCH: 38305862 76.6117%
BRANCH_DIRECT_JUMP: 384282 0.768564%
BRANCH_INDIRECT: 71949 0.143898%
BRANCH_CONDITIONAL: 9879826 19.7597%
BRANCH_DIRECT_CALL: 650586 1.30117%
BRANCH_INDIRECT_CALL: 28456 0.056912%
BRANCH_RETURN: 679046 1.35809%
BRANCH_OTHER: 0 0%

