Initialize SIGNATURE TABLE
ST_SET: 1
ST_WAY: 256
ST_TAG_BIT: 16
ST_TAG_MASK: ffff

Initialize PATTERN TABLE
PT_SET: 512
PT_WAY: 4
SIG_DELTA_BIT: 7
C_SIG_BIT: 4
C_DELTA_BIT: 4

Initialize PREFETCH FILTER
FILTER_SET: 1024

*** ChampSim Multicore Out-of-Order Simulator ***

Warmup Instructions: 50000000
Simulation Instructions: 50000000
Number of CPUs: 1
LLC sets: 2048
LLC ways: 16
Off-chip DRAM Size: 4096 MB Channels: 1 Width: 64-bit Data Rate: 3200 MT/s

CPU 0 runs /home/mbaradaran/ChampSim/dpc3_traces/spec_gobmk_002.champsimtrace.xz
CPU 0 L1D next line prefetcher
Heartbeat CPU 0 instructions: 10000001 cycles: 3287751 heartbeat IPC: 3.04159 cumulative IPC: 3.04159 (Simulation time: 0 hr 1 min 7 sec) 
Heartbeat CPU 0 instructions: 20000000 cycles: 6619648 heartbeat IPC: 3.00129 cumulative IPC: 3.02131 (Simulation time: 0 hr 2 min 24 sec) 
Heartbeat CPU 0 instructions: 30000000 cycles: 9957896 heartbeat IPC: 2.99558 cumulative IPC: 3.01268 (Simulation time: 0 hr 3 min 31 sec) 
Heartbeat CPU 0 instructions: 40000000 cycles: 13267797 heartbeat IPC: 3.02124 cumulative IPC: 3.01482 (Simulation time: 0 hr 4 min 38 sec) 
Heartbeat CPU 0 instructions: 50000003 cycles: 16531689 heartbeat IPC: 3.06383 cumulative IPC: 3.02449 (Simulation time: 0 hr 6 min 8 sec) 

Warmup complete CPU 0 instructions: 50000003 cycles: 16531689 (Simulation time: 0 hr 6 min 8 sec) 

Heartbeat CPU 0 instructions: 60000001 cycles: 26571957 heartbeat IPC: 0.995989 cumulative IPC: 0.995989 (Simulation time: 0 hr 7 min 6 sec) 
Heartbeat CPU 0 instructions: 70000001 cycles: 36542030 heartbeat IPC: 1.003 cumulative IPC: 0.999483 (Simulation time: 0 hr 7 min 53 sec) 
Heartbeat CPU 0 instructions: 80000002 cycles: 46390878 heartbeat IPC: 1.01535 cumulative IPC: 1.00472 (Simulation time: 0 hr 8 min 38 sec) 
Heartbeat CPU 0 instructions: 90000000 cycles: 56059494 heartbeat IPC: 1.03427 cumulative IPC: 1.01195 (Simulation time: 0 hr 9 min 22 sec) 
Heartbeat CPU 0 instructions: 100000003 cycles: 66030171 heartbeat IPC: 1.00294 cumulative IPC: 1.01013 (Simulation time: 0 hr 10 min 4 sec) 
Finished CPU 0 instructions: 50000000 cycles: 49498482 cumulative IPC: 1.01013 (Simulation time: 0 hr 10 min 4 sec) 

ChampSim completed all CPUs

Region of Interest Statistics

CPU 0 cumulative IPC: 1.01013 instructions: 50000000 cycles: 49498482

SHEET
IPC : 1.01013

L1D TOTAL     ACCESS:   18390697  HIT:   18267556  MISS:     123141
L1D LOAD      ACCESS:    7031096  HIT:    6996993  MISS:      34103
L1D RFO       ACCESS:    4407567  HIT:    4364980  MISS:      42587
L1D PREFETCH  ACCESS:    6952034  HIT:    6905583  MISS:      46451
L1D WRITEBACK ACCESS:          0  HIT:          0  MISS:          0
L1D PREFETCH  REQUESTED:    7032992  ISSUED:    6964376  USEFUL:      17410  USELESS:      29225
L1D AVERAGE MISS LATENCY: 49.7384 cycles
L1D

SHEET
L1D-total_access : 18390697
L1D-total_hit : 18267556
L1D-total_miss : 123141
L1D-load_access : 7031096
L1D-load_hit : 6996993
L1D-load_miss : 34103
L1D-rfo_access : 4407567
L1D-rfo_hit : 4364980
L1D-rfo_miss : 42587
L1D-prefetch_access : 6952034
L1D-prefetch_hit : 6905583
L1D-prefetch_miss : 46451
L1D-writeback_access : 0
L1D-writeback_hit : 0
L1D-writeback_miss : 0
L1D-prefetch_requested : 7032992
L1D-prefetch_issued : 6964376
L1D-prefetch_useful : 17410
L1D-prefetch_useless : 29225
L1D-Avg_miss_latency : 49.7384

L1I TOTAL     ACCESS:    8982293  HIT:    7234759  MISS:    1747534
L1I LOAD      ACCESS:    8982293  HIT:    7234759  MISS:    1747534
L1I RFO       ACCESS:          0  HIT:          0  MISS:          0
L1I PREFETCH  ACCESS:          0  HIT:          0  MISS:          0
L1I WRITEBACK ACCESS:          0  HIT:          0  MISS:          0
L1I PREFETCH  REQUESTED:          0  ISSUED:          0  USEFUL:          0  USELESS:          0
L1I AVERAGE MISS LATENCY: 14.1944 cycles
L1I

SHEET
L1I-total_access : 8982293
L1I-total_hit : 7234759
L1I-total_miss : 1747534
L1I-load_access : 8982293
L1I-load_hit : 7234759
L1I-load_miss : 1747534
L1I-rfo_access : 0
L1I-rfo_hit : 0
L1I-rfo_miss : 0
L1I-prefetch_access : 0
L1I-prefetch_hit : 0
L1I-prefetch_miss : 0
L1I-writeback_access : 0
L1I-writeback_hit : 0
L1I-writeback_miss : 0
L1I-prefetch_requested : 0
L1I-prefetch_issued : 0
L1I-prefetch_useful : 0
L1I-prefetch_useless : 0
L1I-Avg_miss_latency : 14.1944

L2C TOTAL     ACCESS:    3626338  HIT:    3589375  MISS:      36963
L2C LOAD      ACCESS:    1780739  HIT:    1765239  MISS:      15500
L2C RFO       ACCESS:      42500  HIT:      39797  MISS:       2703
L2C PREFETCH  ACCESS:    1728902  HIT:    1710269  MISS:      18633
L2C WRITEBACK ACCESS:      74197  HIT:      74070  MISS:        127
L2C PREFETCH  REQUESTED:    1866827  ISSUED:    1866815  USEFUL:       2010  USELESS:      17079
L2C AVERAGE MISS LATENCY: 123.197 cycles
L2C

SHEET
L2C-total_access : 3626338
L2C-total_hit : 3589375
L2C-total_miss : 36963
L2C-load_access : 1780739
L2C-load_hit : 1765239
L2C-load_miss : 15500
L2C-rfo_access : 42500
L2C-rfo_hit : 39797
L2C-rfo_miss : 2703
L2C-prefetch_access : 1728902
L2C-prefetch_hit : 1710269
L2C-prefetch_miss : 18633
L2C-writeback_access : 74197
L2C-writeback_hit : 74070
L2C-writeback_miss : 127
L2C-prefetch_requested : 1866827
L2C-prefetch_issued : 1866815
L2C-prefetch_useful : 2010
L2C-prefetch_useless : 17079
L2C-Avg_miss_latency : 123.197

LLC TOTAL     ACCESS:     143379  HIT:     110729  MISS:      32650
LLC LOAD      ACCESS:      15500  HIT:       6680  MISS:       8820
LLC RFO       ACCESS:       2703  HIT:       1089  MISS:       1614
LLC PREFETCH  ACCESS:     107288  HIT:      85626  MISS:      21662
LLC WRITEBACK ACCESS:      17888  HIT:      17334  MISS:        554
LLC PREFETCH  REQUESTED:          0  ISSUED:          0  USEFUL:       2416  USELESS:      19803
LLC AVERAGE MISS LATENCY: 183.217 cycles
LLC

SHEET
LLC-total_access : 143379
LLC-total_hit : 110729
LLC-total_miss : 32650
LLC-load_access : 15500
LLC-load_hit : 6680
LLC-load_miss : 8820
LLC-rfo_access : 2703
LLC-rfo_hit : 1089
LLC-rfo_miss : 1614
LLC-prefetch_access : 107288
LLC-prefetch_hit : 85626
LLC-prefetch_miss : 21662
LLC-writeback_access : 17888
LLC-writeback_hit : 17334
LLC-writeback_miss : 554
LLC-prefetch_requested : 0
LLC-prefetch_issued : 0
LLC-prefetch_useful : 2416
LLC-prefetch_useless : 19803
LLC-Avg_miss_latency : 183.217

Major fault: 0 Minor fault: 2776
CPU 0 L1D next line prefetcher final stats

DRAM Statistics
 CHANNEL 0
 RQ ROW_BUFFER_HIT:       2731  ROW_BUFFER_MISS:      29365
 DBUS_CONGESTED:      17092
 WQ ROW_BUFFER_HIT:        716  ROW_BUFFER_MISS:      12780  FULL:          0

 AVG_CONGESTED_CYCLE: 4

CPU 0 Branch Prediction Accuracy: 93.9974% MPKI: 10.2447 Average ROB Occupancy at Mispredict: 27.2519

Branch types
NOT_BRANCH: 41466048 82.9321%
BRANCH_DIRECT_JUMP: 464313 0.928626%
BRANCH_INDIRECT: 32 6.4e-05%
BRANCH_CONDITIONAL: 7069451 14.1389%
BRANCH_DIRECT_CALL: 499586 0.999172%
BRANCH_INDIRECT_CALL: 342 0.000684%
BRANCH_RETURN: 499906 0.999812%
BRANCH_OTHER: 0 0%

