Initialize SIGNATURE TABLE
ST_SET: 1
ST_WAY: 256
ST_TAG_BIT: 16
ST_TAG_MASK: ffff

Initialize PATTERN TABLE
PT_SET: 512
PT_WAY: 4
SIG_DELTA_BIT: 7
C_SIG_BIT: 4
C_DELTA_BIT: 4

Initialize PREFETCH FILTER
FILTER_SET: 1024

*** ChampSim Multicore Out-of-Order Simulator ***

Warmup Instructions: 50000000
Simulation Instructions: 50000000
Number of CPUs: 1
LLC sets: 2048
LLC ways: 16
Off-chip DRAM Size: 4096 MB Channels: 1 Width: 64-bit Data Rate: 3200 MT/s

CPU 0 runs /home/mbaradaran/ChampSim/dpc3_traces/spec_gcc_001.champsimtrace.xz
CPU 0 L1D next line prefetcher
Heartbeat CPU 0 instructions: 10000003 cycles: 3219319 heartbeat IPC: 3.10625 cumulative IPC: 3.10625 (Simulation time: 0 hr 1 min 28 sec) 
Heartbeat CPU 0 instructions: 20000002 cycles: 6463845 heartbeat IPC: 3.08211 cumulative IPC: 3.09413 (Simulation time: 0 hr 2 min 57 sec) 
Heartbeat CPU 0 instructions: 30000000 cycles: 9664410 heartbeat IPC: 3.12445 cumulative IPC: 3.10417 (Simulation time: 0 hr 4 min 19 sec) 
Heartbeat CPU 0 instructions: 40000001 cycles: 12904971 heartbeat IPC: 3.08589 cumulative IPC: 3.09958 (Simulation time: 0 hr 5 min 26 sec) 
Heartbeat CPU 0 instructions: 50000001 cycles: 16145035 heartbeat IPC: 3.08636 cumulative IPC: 3.09693 (Simulation time: 0 hr 6 min 46 sec) 

Warmup complete CPU 0 instructions: 50000001 cycles: 16145035 (Simulation time: 0 hr 6 min 46 sec) 

Heartbeat CPU 0 instructions: 60000003 cycles: 25181684 heartbeat IPC: 1.10661 cumulative IPC: 1.10661 (Simulation time: 0 hr 7 min 45 sec) 
Heartbeat CPU 0 instructions: 70000003 cycles: 34224720 heartbeat IPC: 1.10582 cumulative IPC: 1.10621 (Simulation time: 0 hr 8 min 44 sec) 
Heartbeat CPU 0 instructions: 80000000 cycles: 42813004 heartbeat IPC: 1.16438 cumulative IPC: 1.12495 (Simulation time: 0 hr 9 min 41 sec) 
Heartbeat CPU 0 instructions: 90000001 cycles: 51630517 heartbeat IPC: 1.13411 cumulative IPC: 1.12722 (Simulation time: 0 hr 10 min 43 sec) 
Heartbeat CPU 0 instructions: 100000000 cycles: 60860407 heartbeat IPC: 1.08344 cumulative IPC: 1.11818 (Simulation time: 0 hr 11 min 39 sec) 
Finished CPU 0 instructions: 50000000 cycles: 44715376 cumulative IPC: 1.11818 (Simulation time: 0 hr 11 min 39 sec) 

ChampSim completed all CPUs

Region of Interest Statistics

CPU 0 cumulative IPC: 1.11818 instructions: 50000000 cycles: 44715376

SHEET
IPC : 1.11818

L1D TOTAL     ACCESS:   19999095  HIT:   18893832  MISS:    1105263
L1D LOAD      ACCESS:    7560593  HIT:    7082985  MISS:     477608
L1D RFO       ACCESS:    5144434  HIT:    5064957  MISS:      79477
L1D PREFETCH  ACCESS:    7294068  HIT:    6745890  MISS:     548178
L1D WRITEBACK ACCESS:          0  HIT:          0  MISS:          0
L1D PREFETCH  REQUESTED:    7604392  ISSUED:    7494360  USEFUL:     277904  USELESS:     270287
L1D AVERAGE MISS LATENCY: 25.1438 cycles
L1D

SHEET
L1D-total_access : 19999095
L1D-total_hit : 18893832
L1D-total_miss : 1105263
L1D-load_access : 7560593
L1D-load_hit : 7082985
L1D-load_miss : 477608
L1D-rfo_access : 5144434
L1D-rfo_hit : 5064957
L1D-rfo_miss : 79477
L1D-prefetch_access : 7294068
L1D-prefetch_hit : 6745890
L1D-prefetch_miss : 548178
L1D-writeback_access : 0
L1D-writeback_hit : 0
L1D-writeback_miss : 0
L1D-prefetch_requested : 7604392
L1D-prefetch_issued : 7494360
L1D-prefetch_useful : 277904
L1D-prefetch_useless : 270287
L1D-Avg_miss_latency : 25.1438

L1I TOTAL     ACCESS:    9433854  HIT:    8495419  MISS:     938435
L1I LOAD      ACCESS:    9433854  HIT:    8495419  MISS:     938435
L1I RFO       ACCESS:          0  HIT:          0  MISS:          0
L1I PREFETCH  ACCESS:          0  HIT:          0  MISS:          0
L1I WRITEBACK ACCESS:          0  HIT:          0  MISS:          0
L1I PREFETCH  REQUESTED:          0  ISSUED:          0  USEFUL:          0  USELESS:          0
L1I AVERAGE MISS LATENCY: 16.7768 cycles
L1I

SHEET
L1I-total_access : 9433854
L1I-total_hit : 8495419
L1I-total_miss : 938435
L1I-load_access : 9433854
L1I-load_hit : 8495419
L1I-load_miss : 938435
L1I-rfo_access : 0
L1I-rfo_hit : 0
L1I-rfo_miss : 0
L1I-prefetch_access : 0
L1I-prefetch_hit : 0
L1I-prefetch_miss : 0
L1I-writeback_access : 0
L1I-writeback_hit : 0
L1I-writeback_miss : 0
L1I-prefetch_requested : 0
L1I-prefetch_issued : 0
L1I-prefetch_useful : 0
L1I-prefetch_useless : 0
L1I-Avg_miss_latency : 16.7768

L2C TOTAL     ACCESS:    3699531  HIT:    3472392  MISS:     227139
L2C LOAD      ACCESS:    1388718  HIT:    1288723  MISS:      99995
L2C RFO       ACCESS:      75238  HIT:      37804  MISS:      37434
L2C PREFETCH  ACCESS:    1981812  HIT:    1892497  MISS:      89315
L2C WRITEBACK ACCESS:     253763  HIT:     253368  MISS:        395
L2C PREFETCH  REQUESTED:    2262227  ISSUED:    2262156  USEFUL:      27202  USELESS:      61413
L2C AVERAGE MISS LATENCY: 64.1006 cycles
L2C

SHEET
L2C-total_access : 3699531
L2C-total_hit : 3472392
L2C-total_miss : 227139
L2C-load_access : 1388718
L2C-load_hit : 1288723
L2C-load_miss : 99995
L2C-rfo_access : 75238
L2C-rfo_hit : 37804
L2C-rfo_miss : 37434
L2C-prefetch_access : 1981812
L2C-prefetch_hit : 1892497
L2C-prefetch_miss : 89315
L2C-writeback_access : 253763
L2C-writeback_hit : 253368
L2C-writeback_miss : 395
L2C-prefetch_requested : 2262227
L2C-prefetch_issued : 2262156
L2C-prefetch_useful : 27202
L2C-prefetch_useless : 61413
L2C-Avg_miss_latency : 64.1006

LLC TOTAL     ACCESS:     685071  HIT:     609666  MISS:      75405
LLC LOAD      ACCESS:      99801  HIT:      86825  MISS:      12976
LLC RFO       ACCESS:      37433  HIT:      16539  MISS:      20894
LLC PREFETCH  ACCESS:     460669  HIT:     420488  MISS:      40181
LLC WRITEBACK ACCESS:      87168  HIT:      85814  MISS:       1354
LLC PREFETCH  REQUESTED:          0  ISSUED:          0  USEFUL:      13992  USELESS:      25603
LLC AVERAGE MISS LATENCY: 176.45 cycles
LLC

SHEET
LLC-total_access : 685071
LLC-total_hit : 609666
LLC-total_miss : 75405
LLC-load_access : 99801
LLC-load_hit : 86825
LLC-load_miss : 12976
LLC-rfo_access : 37433
LLC-rfo_hit : 16539
LLC-rfo_miss : 20894
LLC-prefetch_access : 460669
LLC-prefetch_hit : 420488
LLC-prefetch_miss : 40181
LLC-writeback_access : 87168
LLC-writeback_hit : 85814
LLC-writeback_miss : 1354
LLC-prefetch_requested : 0
LLC-prefetch_issued : 0
LLC-prefetch_useful : 13992
LLC-prefetch_useless : 25603
LLC-Avg_miss_latency : 176.45

Major fault: 0 Minor fault: 6865
CPU 0 L1D next line prefetcher final stats

DRAM Statistics
 CHANNEL 0
 RQ ROW_BUFFER_HIT:      19683  ROW_BUFFER_MISS:      54365
 DBUS_CONGESTED:      34292
 WQ ROW_BUFFER_HIT:       4560  ROW_BUFFER_MISS:      23300  FULL:          0

 AVG_CONGESTED_CYCLE: 6

CPU 0 Branch Prediction Accuracy: 95.8872% MPKI: 9.67286 Average ROB Occupancy at Mispredict: 51.0313

Branch types
NOT_BRANCH: 38240102 76.4802%
BRANCH_DIRECT_JUMP: 653296 1.30659%
BRANCH_INDIRECT: 37098 0.074196%
BRANCH_CONDITIONAL: 8897819 17.7956%
BRANCH_DIRECT_CALL: 992620 1.98524%
BRANCH_INDIRECT_CALL: 93046 0.186092%
BRANCH_RETURN: 1085674 2.17135%
BRANCH_OTHER: 0 0%

