Initialize SIGNATURE TABLE
ST_SET: 1
ST_WAY: 256
ST_TAG_BIT: 16
ST_TAG_MASK: ffff

Initialize PATTERN TABLE
PT_SET: 512
PT_WAY: 4
SIG_DELTA_BIT: 7
C_SIG_BIT: 4
C_DELTA_BIT: 4

Initialize PREFETCH FILTER
FILTER_SET: 1024
MANA initialize 
tds: 2 tdm: 4
size MANA SINGLE: 74 KB
size MANA NULTIPLE: 43 KB
size HOBPT: 5 KB
size SRQ: 0.14502 KB
size SABs: 0.290039 KB
size prefetch queue: 0.453125 KB
total: 122.888 KB

*** ChampSim Multicore Out-of-Order Simulator ***

Warmup Instructions: 50000000
Simulation Instructions: 50000000
Number of CPUs: 1
LLC sets: 2048
LLC ways: 16
Off-chip DRAM Size: 4096 MB Channels: 1 Width: 64-bit Data Rate: 3200 MT/s

CPU 0 runs ../dpc3_traces/client_007.champsimtrace.xz
CPU 0 L1D next line prefetcher
Heartbeat CPU 0 instructions: 10000001 cycles: 3641656 heartbeat IPC: 2.746 cumulative IPC: 2.746 (Simulation time: 0 hr 1 min 13 sec) 
Heartbeat CPU 0 instructions: 20000003 cycles: 7033147 heartbeat IPC: 2.94856 cumulative IPC: 2.84368 (Simulation time: 0 hr 2 min 22 sec) 
Heartbeat CPU 0 instructions: 30000000 cycles: 10904470 heartbeat IPC: 2.5831 cumulative IPC: 2.75117 (Simulation time: 0 hr 3 min 42 sec) 
Heartbeat CPU 0 instructions: 40000003 cycles: 15064485 heartbeat IPC: 2.40384 cumulative IPC: 2.65525 (Simulation time: 0 hr 5 min 6 sec) 
Heartbeat CPU 0 instructions: 50000002 cycles: 18469146 heartbeat IPC: 2.93715 cumulative IPC: 2.70722 (Simulation time: 0 hr 6 min 19 sec) 

Warmup complete CPU 0 instructions: 50000002 cycles: 18469146 (Simulation time: 0 hr 6 min 19 sec) 

Heartbeat CPU 0 instructions: 60000003 cycles: 25470871 heartbeat IPC: 1.42822 cumulative IPC: 1.42822 (Simulation time: 0 hr 7 min 40 sec) 
Heartbeat CPU 0 instructions: 70000003 cycles: 34334994 heartbeat IPC: 1.12814 cumulative IPC: 1.26057 (Simulation time: 0 hr 9 min 4 sec) 
Heartbeat CPU 0 instructions: 80000002 cycles: 39696667 heartbeat IPC: 1.86509 cumulative IPC: 1.41326 (Simulation time: 0 hr 10 min 7 sec) 
Heartbeat CPU 0 instructions: 90000002 cycles: 47434415 heartbeat IPC: 1.29237 cumulative IPC: 1.38096 (Simulation time: 0 hr 11 min 22 sec) 
Heartbeat CPU 0 instructions: 100000002 cycles: 56385002 heartbeat IPC: 1.11725 cumulative IPC: 1.31871 (Simulation time: 0 hr 12 min 34 sec) 
Finished CPU 0 instructions: 50000000 cycles: 37915856 cumulative IPC: 1.31871 (Simulation time: 0 hr 12 min 34 sec) 

ChampSim completed all CPUs

Region of Interest Statistics

CPU 0 cumulative IPC: 1.31871 instructions: 50000000 cycles: 37915856

SHEET
IPC : 1.31871

L1D TOTAL     ACCESS:   21267409  HIT:   20098066  MISS:    1169343
L1D LOAD      ACCESS:    8403551  HIT:    7865195  MISS:     538356
L1D RFO       ACCESS:    4870452  HIT:    4779433  MISS:      91019
L1D PREFETCH  ACCESS:    7993406  HIT:    7453438  MISS:     539968
L1D WRITEBACK ACCESS:          0  HIT:          0  MISS:          0
L1D PREFETCH  REQUESTED:    8455341  ISSUED:    8211599  USEFUL:     159295  USELESS:     380689
L1D AVERAGE MISS LATENCY: 34.48 cycles
L1D

SHEET
L1D-total_access : 21267409
L1D-total_hit : 20098066
L1D-total_miss : 1169343
L1D-load_access : 8403551
L1D-load_hit : 7865195
L1D-load_miss : 538356
L1D-rfo_access : 4870452
L1D-rfo_hit : 4779433
L1D-rfo_miss : 91019
L1D-prefetch_access : 7993406
L1D-prefetch_hit : 7453438
L1D-prefetch_miss : 539968
L1D-writeback_access : 0
L1D-writeback_hit : 0
L1D-writeback_miss : 0
L1D-prefetch_requested : 8455341
L1D-prefetch_issued : 8211599
L1D-prefetch_useful : 159295
L1D-prefetch_useless : 380689
L1D-Avg_miss_latency : 34.48
L1D-Morteza_fill_l2_prefetches : 0

L1I TOTAL     ACCESS:   13408283  HIT:   12473857  MISS:     934426
L1I LOAD      ACCESS:    9074591  HIT:    8939210  MISS:     135381
L1I RFO       ACCESS:          0  HIT:          0  MISS:          0
L1I PREFETCH  ACCESS:    4333692  HIT:    3534647  MISS:     799045
L1I WRITEBACK ACCESS:          0  HIT:          0  MISS:          0
L1I PREFETCH  REQUESTED:    4611528  ISSUED:    4601511  USEFUL:     694993  USELESS:     104033
L1I AVERAGE MISS LATENCY: 16.0315 cycles
L1I

SHEET
L1I-total_access : 13408283
L1I-total_hit : 12473857
L1I-total_miss : 934426
L1I-load_access : 9074591
L1I-load_hit : 8939210
L1I-load_miss : 135381
L1I-rfo_access : 0
L1I-rfo_hit : 0
L1I-rfo_miss : 0
L1I-prefetch_access : 4333692
L1I-prefetch_hit : 3534647
L1I-prefetch_miss : 799045
L1I-writeback_access : 0
L1I-writeback_hit : 0
L1I-writeback_miss : 0
L1I-prefetch_requested : 4611528
L1I-prefetch_issued : 4601511
L1I-prefetch_useful : 694993
L1I-prefetch_useless : 104033
L1I-Avg_miss_latency : 16.0315
L1I-Morteza_fill_l2_prefetches : 0

L2C TOTAL     ACCESS:    3047833  HIT:    2841224  MISS:     206609
L2C LOAD      ACCESS:     602872  HIT:     532869  MISS:      70003
L2C RFO       ACCESS:      89500  HIT:      47838  MISS:      41662
L2C PREFETCH  ACCESS:    2027745  HIT:    1932938  MISS:      94807
L2C WRITEBACK ACCESS:     327716  HIT:     327579  MISS:        137
L2C PREFETCH  REQUESTED:    2463056  ISSUED:    2460104  USEFUL:       9471  USELESS:      85007
L2C AVERAGE MISS LATENCY: 125.311 cycles
L2C

SHEET
L2C-total_access : 3047833
L2C-total_hit : 2841224
L2C-total_miss : 206609
L2C-load_access : 602872
L2C-load_hit : 532869
L2C-load_miss : 70003
L2C-rfo_access : 89500
L2C-rfo_hit : 47838
L2C-rfo_miss : 41662
L2C-prefetch_access : 2027745
L2C-prefetch_hit : 1932938
L2C-prefetch_miss : 94807
L2C-writeback_access : 327716
L2C-writeback_hit : 327579
L2C-writeback_miss : 137
L2C-prefetch_requested : 2463056
L2C-prefetch_issued : 2460104
L2C-prefetch_useful : 9471
L2C-prefetch_useless : 85007
L2C-Avg_miss_latency : 125.311
L2C-Morteza_fill_l2_prefetches : 631693

LLC TOTAL     ACCESS:     967703  HIT:     799528  MISS:     168175
LLC LOAD      ACCESS:      69920  HIT:      34820  MISS:      35100
LLC RFO       ACCESS:      41662  HIT:       7232  MISS:      34430
LLC PREFETCH  ACCESS:     781496  HIT:     683161  MISS:      98335
LLC WRITEBACK ACCESS:      74625  HIT:      74315  MISS:        310
LLC PREFETCH  REQUESTED:          0  ISSUED:          0  USEFUL:      18761  USELESS:      80174
LLC AVERAGE MISS LATENCY: 182.03 cycles
LLC

SHEET
LLC-total_access : 967703
LLC-total_hit : 799528
LLC-total_miss : 168175
LLC-load_access : 69920
LLC-load_hit : 34820
LLC-load_miss : 35100
LLC-rfo_access : 41662
LLC-rfo_hit : 7232
LLC-rfo_miss : 34430
LLC-prefetch_access : 781496
LLC-prefetch_hit : 683161
LLC-prefetch_miss : 98335
LLC-writeback_access : 74625
LLC-writeback_hit : 74315
LLC-writeback_miss : 310
LLC-prefetch_requested : 0
LLC-prefetch_issued : 0
LLC-prefetch_useful : 18761
LLC-prefetch_useless : 80174
LLC-Avg_miss_latency : 182.03
LLC-Morteza_fill_l2_prefetches : 631643

Major fault: 0 Minor fault: 4469



Printing Logs
statHeadFound: 674804
statHeadMissing: 1409975
statStreamBufferHit: 11587049
statPrefetchEntryFound: 3134498
statCompactorMatch: 12596742
statStreamTrackerLookup: 13671828
statRecord: 1075086
statGetPointer: 2084779
statEnqueuePrefetch: 9294795
statPrefetchQueueIsFull: 629
StreamBufferHitRate: 0.847513
Regions' size: 4991
next_region_correct: 674742
next_region_wrong: 395335
next_region_correct_prediction: 0.630555
statStreamBufferLookups: 984371616
statL1iLookups: 74358360
statCompactorLookups: 492185808
morteza: start

SHEET
mana_table_access_counter : 1566136
mana_table_multiple_access_counter : 3326819
hobp_table_access_counter : 24126913
sab_access_counter : 14721547
srq_access_counter : 12355933

morteza: end
CPU 0 L1D next line prefetcher final stats

DRAM Statistics
 CHANNEL 0
 RQ ROW_BUFFER_HIT:      35873  ROW_BUFFER_MISS:     131989
 DBUS_CONGESTED:      95087
 WQ ROW_BUFFER_HIT:      12967  ROW_BUFFER_MISS:      45436  FULL:          0

 AVG_CONGESTED_CYCLE: 5

CPU 0 Branch Prediction Accuracy: 98.8607% MPKI: 1.8623 Average ROB Occupancy at Mispredict: 112.59

Branch types
NOT_BRANCH: 41826773 83.6535%
BRANCH_DIRECT_JUMP: 735330 1.47066%
BRANCH_INDIRECT: 269194 0.538388%
BRANCH_CONDITIONAL: 5957947 11.9159%
BRANCH_DIRECT_CALL: 368758 0.737516%
BRANCH_INDIRECT_CALL: 226975 0.45395%
BRANCH_RETURN: 614696 1.22939%
BRANCH_OTHER: 0 0%

