Initialize SIGNATURE TABLE
ST_SET: 1
ST_WAY: 256
ST_TAG_BIT: 16
ST_TAG_MASK: ffff

Initialize PATTERN TABLE
PT_SET: 512
PT_WAY: 4
SIG_DELTA_BIT: 7
C_SIG_BIT: 4
C_DELTA_BIT: 4

Initialize PREFETCH FILTER
FILTER_SET: 1024
MANA initialize 
tds: 2 tdm: 4
size MANA SINGLE: 74 KB
size MANA NULTIPLE: 43 KB
size HOBPT: 5 KB
size SRQ: 0.14502 KB
size SABs: 0.290039 KB
size prefetch queue: 0.453125 KB
total: 122.888 KB

*** ChampSim Multicore Out-of-Order Simulator ***

Warmup Instructions: 50000000
Simulation Instructions: 50000000
Number of CPUs: 1
LLC sets: 2048
LLC ways: 16
Off-chip DRAM Size: 4096 MB Channels: 1 Width: 64-bit Data Rate: 3200 MT/s

CPU 0 runs ../dpc3_traces/client_006.champsimtrace.xz
CPU 0 L1D next line prefetcher
Heartbeat CPU 0 instructions: 10000003 cycles: 4267431 heartbeat IPC: 2.34333 cumulative IPC: 2.34333 (Simulation time: 0 hr 1 min 20 sec) 
Heartbeat CPU 0 instructions: 20000000 cycles: 8307381 heartbeat IPC: 2.47528 cumulative IPC: 2.4075 (Simulation time: 0 hr 2 min 49 sec) 
Heartbeat CPU 0 instructions: 30000003 cycles: 11370722 heartbeat IPC: 3.26441 cumulative IPC: 2.63836 (Simulation time: 0 hr 3 min 59 sec) 
Heartbeat CPU 0 instructions: 40000000 cycles: 14715058 heartbeat IPC: 2.99013 cumulative IPC: 2.7183 (Simulation time: 0 hr 5 min 13 sec) 
Heartbeat CPU 0 instructions: 50000003 cycles: 18819889 heartbeat IPC: 2.43615 cumulative IPC: 2.65676 (Simulation time: 0 hr 6 min 36 sec) 

Warmup complete CPU 0 instructions: 50000003 cycles: 18819889 (Simulation time: 0 hr 6 min 36 sec) 

Heartbeat CPU 0 instructions: 60000001 cycles: 26703916 heartbeat IPC: 1.26839 cumulative IPC: 1.26839 (Simulation time: 0 hr 7 min 42 sec) 
Heartbeat CPU 0 instructions: 70000003 cycles: 36459158 heartbeat IPC: 1.02509 cumulative IPC: 1.13383 (Simulation time: 0 hr 8 min 57 sec) 
Heartbeat CPU 0 instructions: 80000002 cycles: 44814584 heartbeat IPC: 1.19683 cumulative IPC: 1.15408 (Simulation time: 0 hr 9 min 59 sec) 
Heartbeat CPU 0 instructions: 90000003 cycles: 52647474 heartbeat IPC: 1.27667 cumulative IPC: 1.18247 (Simulation time: 0 hr 11 min 0 sec) 
Heartbeat CPU 0 instructions: 100000001 cycles: 60874876 heartbeat IPC: 1.21545 cumulative IPC: 1.18892 (Simulation time: 0 hr 12 min 5 sec) 
Finished CPU 0 instructions: 50000002 cycles: 42054988 cumulative IPC: 1.18892 (Simulation time: 0 hr 12 min 5 sec) 

ChampSim completed all CPUs

Region of Interest Statistics

CPU 0 cumulative IPC: 1.18892 instructions: 50000002 cycles: 42054988

SHEET
IPC : 1.18892

L1D TOTAL     ACCESS:   16616589  HIT:   15889367  MISS:     727222
L1D LOAD      ACCESS:    6376346  HIT:    5970398  MISS:     405948
L1D RFO       ACCESS:    4333944  HIT:    4291288  MISS:      42656
L1D PREFETCH  ACCESS:    5906299  HIT:    5627681  MISS:     278618
L1D WRITEBACK ACCESS:          0  HIT:          0  MISS:          0
L1D PREFETCH  REQUESTED:    6417690  ISSUED:    6236914  USEFUL:     117601  USELESS:     160892
L1D AVERAGE MISS LATENCY: 81.4711 cycles
L1D

SHEET
L1D-total_access : 16616589
L1D-total_hit : 15889367
L1D-total_miss : 727222
L1D-load_access : 6376346
L1D-load_hit : 5970398
L1D-load_miss : 405948
L1D-rfo_access : 4333944
L1D-rfo_hit : 4291288
L1D-rfo_miss : 42656
L1D-prefetch_access : 5906299
L1D-prefetch_hit : 5627681
L1D-prefetch_miss : 278618
L1D-writeback_access : 0
L1D-writeback_hit : 0
L1D-writeback_miss : 0
L1D-prefetch_requested : 6417690
L1D-prefetch_issued : 6236914
L1D-prefetch_useful : 117601
L1D-prefetch_useless : 160892
L1D-Avg_miss_latency : 81.4711
L1D-Morteza_fill_l2_prefetches : 0

L1I TOTAL     ACCESS:   13017228  HIT:   12293029  MISS:     724199
L1I LOAD      ACCESS:    8436558  HIT:    8358404  MISS:      78154
L1I RFO       ACCESS:          0  HIT:          0  MISS:          0
L1I PREFETCH  ACCESS:    4580670  HIT:    3934625  MISS:     646045
L1I WRITEBACK ACCESS:          0  HIT:          0  MISS:          0
L1I PREFETCH  REQUESTED:    4853868  ISSUED:    4832349  USEFUL:     606975  USELESS:      39164
L1I AVERAGE MISS LATENCY: 22.961 cycles
L1I

SHEET
L1I-total_access : 13017228
L1I-total_hit : 12293029
L1I-total_miss : 724199
L1I-load_access : 8436558
L1I-load_hit : 8358404
L1I-load_miss : 78154
L1I-rfo_access : 0
L1I-rfo_hit : 0
L1I-rfo_miss : 0
L1I-prefetch_access : 4580670
L1I-prefetch_hit : 3934625
L1I-prefetch_miss : 646045
L1I-writeback_access : 0
L1I-writeback_hit : 0
L1I-writeback_miss : 0
L1I-prefetch_requested : 4853868
L1I-prefetch_issued : 4832349
L1I-prefetch_useful : 606975
L1I-prefetch_useless : 39164
L1I-Avg_miss_latency : 22.961
L1I-Morteza_fill_l2_prefetches : 0

L2C TOTAL     ACCESS:    2033348  HIT:    1487346  MISS:     546002
L2C LOAD      ACCESS:     373534  HIT:     134722  MISS:     238812
L2C RFO       ACCESS:      42364  HIT:      12387  MISS:      29977
L2C PREFETCH  ACCESS:    1441460  HIT:    1164974  MISS:     276486
L2C WRITEBACK ACCESS:     175990  HIT:     175263  MISS:        727
L2C PREFETCH  REQUESTED:    2472190  ISSUED:    2452753  USEFUL:      12634  USELESS:     264615
L2C AVERAGE MISS LATENCY: 115.946 cycles
L2C

SHEET
L2C-total_access : 2033348
L2C-total_hit : 1487346
L2C-total_miss : 546002
L2C-load_access : 373534
L2C-load_hit : 134722
L2C-load_miss : 238812
L2C-rfo_access : 42364
L2C-rfo_hit : 12387
L2C-rfo_miss : 29977
L2C-prefetch_access : 1441460
L2C-prefetch_hit : 1164974
L2C-prefetch_miss : 276486
L2C-writeback_access : 175990
L2C-writeback_hit : 175263
L2C-writeback_miss : 727
L2C-prefetch_requested : 2472190
L2C-prefetch_issued : 2452753
L2C-prefetch_useful : 12634
L2C-prefetch_useless : 264615
L2C-Avg_miss_latency : 115.946
L2C-Morteza_fill_l2_prefetches : 400715

LLC TOTAL     ACCESS:    1256608  HIT:     871704  MISS:     384904
LLC LOAD      ACCESS:     229287  HIT:     135942  MISS:      93345
LLC RFO       ACCESS:      29975  HIT:       5121  MISS:      24854
LLC PREFETCH  ACCESS:     863125  HIT:     596960  MISS:     266165
LLC WRITEBACK ACCESS:     134221  HIT:     133681  MISS:        540
LLC PREFETCH  REQUESTED:          0  ISSUED:          0  USEFUL:      41748  USELESS:     227596
LLC AVERAGE MISS LATENCY: 197.125 cycles
LLC

SHEET
LLC-total_access : 1256608
LLC-total_hit : 871704
LLC-total_miss : 384904
LLC-load_access : 229287
LLC-load_hit : 135942
LLC-load_miss : 93345
LLC-rfo_access : 29975
LLC-rfo_hit : 5121
LLC-rfo_miss : 24854
LLC-prefetch_access : 863125
LLC-prefetch_hit : 596960
LLC-prefetch_miss : 266165
LLC-writeback_access : 134221
LLC-writeback_hit : 133681
LLC-writeback_miss : 540
LLC-prefetch_requested : 0
LLC-prefetch_issued : 0
LLC-prefetch_useful : 41748
LLC-prefetch_useless : 227596
LLC-Avg_miss_latency : 197.125
LLC-Morteza_fill_l2_prefetches : 463666

Major fault: 0 Minor fault: 10591



Printing Logs
statHeadFound: 494830
statHeadMissing: 559401
statStreamBufferHit: 10755584
statPrefetchEntryFound: 2600309
statCompactorMatch: 10815395
statStreamTrackerLookup: 11809815
statRecord: 994420
statGetPointer: 1054231
statEnqueuePrefetch: 9215243
statPrefetchQueueIsFull: 1501
StreamBufferHitRate: 0.910733
Regions' size: 2729
next_region_correct: 761233
next_region_wrong: 230440
next_region_correct_prediction: 0.767625
statStreamBufferLookups: 850306680
statL1iLookups: 73721944
statCompactorLookups: 425153340
morteza: start

SHEET
mana_table_access_counter : 1362231
mana_table_multiple_access_counter : 2732462
hobp_table_access_counter : 15019379
sab_access_counter : 13355893
srq_access_counter : 10903717

morteza: end
CPU 0 L1D next line prefetcher final stats

DRAM Statistics
 CHANNEL 0
 RQ ROW_BUFFER_HIT:     101859  ROW_BUFFER_MISS:     282496
 DBUS_CONGESTED:     227610
 WQ ROW_BUFFER_HIT:      20783  ROW_BUFFER_MISS:      94238  FULL:          0

 AVG_CONGESTED_CYCLE: 5

CPU 0 Branch Prediction Accuracy: 98.1683% MPKI: 3.13642 Average ROB Occupancy at Mispredict: 86.2852

Branch types
NOT_BRANCH: 41438067 82.8761%
BRANCH_DIRECT_JUMP: 413829 0.827658%
BRANCH_INDIRECT: 47058 0.094116%
BRANCH_CONDITIONAL: 6843835 13.6877%
BRANCH_DIRECT_CALL: 536885 1.07377%
BRANCH_INDIRECT_CALL: 90642 0.181284%
BRANCH_RETURN: 629329 1.25866%
BRANCH_OTHER: 0 0%

