Initialize SIGNATURE TABLE
ST_SET: 1
ST_WAY: 256
ST_TAG_BIT: 16
ST_TAG_MASK: ffff

Initialize PATTERN TABLE
PT_SET: 512
PT_WAY: 4
SIG_DELTA_BIT: 7
C_SIG_BIT: 4
C_DELTA_BIT: 4

Initialize PREFETCH FILTER
FILTER_SET: 1024
MANA initialize 
tds: 2 tdm: 4
size MANA SINGLE: 74 KB
size MANA NULTIPLE: 43 KB
size HOBPT: 5 KB
size SRQ: 0.14502 KB
size SABs: 0.290039 KB
size prefetch queue: 0.453125 KB
total: 122.888 KB

*** ChampSim Multicore Out-of-Order Simulator ***

Warmup Instructions: 50000000
Simulation Instructions: 50000000
Number of CPUs: 1
LLC sets: 2048
LLC ways: 16
Off-chip DRAM Size: 4096 MB Channels: 1 Width: 64-bit Data Rate: 3200 MT/s

CPU 0 runs ../dpc3_traces/server_003.champsimtrace.xz
CPU 0 L1D next line prefetcher
Heartbeat CPU 0 instructions: 10000002 cycles: 3219140 heartbeat IPC: 3.10642 cumulative IPC: 3.10642 (Simulation time: 0 hr 1 min 24 sec) 
Heartbeat CPU 0 instructions: 20000000 cycles: 6534901 heartbeat IPC: 3.0159 cumulative IPC: 3.06049 (Simulation time: 0 hr 2 min 47 sec) 
Heartbeat CPU 0 instructions: 30000000 cycles: 9741144 heartbeat IPC: 3.11892 cumulative IPC: 3.07972 (Simulation time: 0 hr 4 min 7 sec) 
Heartbeat CPU 0 instructions: 40000001 cycles: 13155042 heartbeat IPC: 2.9292 cumulative IPC: 3.04066 (Simulation time: 0 hr 5 min 26 sec) 
Heartbeat CPU 0 instructions: 50000003 cycles: 16873447 heartbeat IPC: 2.68933 cumulative IPC: 2.96324 (Simulation time: 0 hr 6 min 52 sec) 

Warmup complete CPU 0 instructions: 50000003 cycles: 16873447 (Simulation time: 0 hr 6 min 52 sec) 

Heartbeat CPU 0 instructions: 60000000 cycles: 25797212 heartbeat IPC: 1.1206 cumulative IPC: 1.1206 (Simulation time: 0 hr 8 min 7 sec) 
Heartbeat CPU 0 instructions: 70000003 cycles: 34814023 heartbeat IPC: 1.10904 cumulative IPC: 1.11479 (Simulation time: 0 hr 9 min 20 sec) 
Heartbeat CPU 0 instructions: 80000000 cycles: 44900092 heartbeat IPC: 0.991466 cumulative IPC: 1.07041 (Simulation time: 0 hr 10 min 33 sec) 
Heartbeat CPU 0 instructions: 90000003 cycles: 55059682 heartbeat IPC: 0.984292 cumulative IPC: 1.0475 (Simulation time: 0 hr 11 min 51 sec) 
Heartbeat CPU 0 instructions: 100000001 cycles: 65729667 heartbeat IPC: 0.937208 cumulative IPC: 1.02341 (Simulation time: 0 hr 13 min 0 sec) 
Finished CPU 0 instructions: 50000002 cycles: 48856221 cumulative IPC: 1.02341 (Simulation time: 0 hr 13 min 0 sec) 

ChampSim completed all CPUs

Region of Interest Statistics

CPU 0 cumulative IPC: 1.02341 instructions: 50000002 cycles: 48856221

SHEET
IPC : 1.02341

L1D TOTAL     ACCESS:   20031985  HIT:   18890854  MISS:    1141131
L1D LOAD      ACCESS:    7868291  HIT:    7338677  MISS:     529614
L1D RFO       ACCESS:    4555352  HIT:    4437989  MISS:     117363
L1D PREFETCH  ACCESS:    7608342  HIT:    7114188  MISS:     494154
L1D WRITEBACK ACCESS:          0  HIT:          0  MISS:          0
L1D PREFETCH  REQUESTED:    7928337  ISSUED:    7836619  USEFUL:     155846  USELESS:     338267
L1D AVERAGE MISS LATENCY: 54.6539 cycles
L1D

SHEET
L1D-total_access : 20031985
L1D-total_hit : 18890854
L1D-total_miss : 1141131
L1D-load_access : 7868291
L1D-load_hit : 7338677
L1D-load_miss : 529614
L1D-rfo_access : 4555352
L1D-rfo_hit : 4437989
L1D-rfo_miss : 117363
L1D-prefetch_access : 7608342
L1D-prefetch_hit : 7114188
L1D-prefetch_miss : 494154
L1D-writeback_access : 0
L1D-writeback_hit : 0
L1D-writeback_miss : 0
L1D-prefetch_requested : 7928337
L1D-prefetch_issued : 7836619
L1D-prefetch_useful : 155846
L1D-prefetch_useless : 338267
L1D-Avg_miss_latency : 54.6539
L1D-Morteza_fill_l2_prefetches : 0

L1I TOTAL     ACCESS:   15071848  HIT:   13826637  MISS:    1245211
L1I LOAD      ACCESS:    9287174  HIT:    9045778  MISS:     241396
L1I RFO       ACCESS:          0  HIT:          0  MISS:          0
L1I PREFETCH  ACCESS:    5784674  HIT:    4780859  MISS:    1003815
L1I WRITEBACK ACCESS:          0  HIT:          0  MISS:          0
L1I PREFETCH  REQUESTED:    6203056  ISSUED:    6164912  USEFUL:     683947  USELESS:     319830
L1I AVERAGE MISS LATENCY: 37.572 cycles
L1I

SHEET
L1I-total_access : 15071848
L1I-total_hit : 13826637
L1I-total_miss : 1245211
L1I-load_access : 9287174
L1I-load_hit : 9045778
L1I-load_miss : 241396
L1I-rfo_access : 0
L1I-rfo_hit : 0
L1I-rfo_miss : 0
L1I-prefetch_access : 5784674
L1I-prefetch_hit : 4780859
L1I-prefetch_miss : 1003815
L1I-writeback_access : 0
L1I-writeback_hit : 0
L1I-writeback_miss : 0
L1I-prefetch_requested : 6203056
L1I-prefetch_issued : 6164912
L1I-prefetch_useful : 683947
L1I-prefetch_useless : 319830
L1I-Avg_miss_latency : 37.572
L1I-Morteza_fill_l2_prefetches : 0

L2C TOTAL     ACCESS:    3190170  HIT:    2200143  MISS:     990027
L2C LOAD      ACCESS:     656648  HIT:     383173  MISS:     273475
L2C RFO       ACCESS:     114692  HIT:      40695  MISS:      73997
L2C PREFETCH  ACCESS:    2134540  HIT:    1493008  MISS:     641532
L2C WRITEBACK ACCESS:     284290  HIT:     283267  MISS:       1023
L2C PREFETCH  REQUESTED:    2481086  ISSUED:    2480428  USEFUL:      39847  USELESS:     599407
L2C AVERAGE MISS LATENCY: 80.629 cycles
L2C

SHEET
L2C-total_access : 3190170
L2C-total_hit : 2200143
L2C-total_miss : 990027
L2C-load_access : 656648
L2C-load_hit : 383173
L2C-load_miss : 273475
L2C-rfo_access : 114692
L2C-rfo_hit : 40695
L2C-rfo_miss : 73997
L2C-prefetch_access : 2134540
L2C-prefetch_hit : 1493008
L2C-prefetch_miss : 641532
L2C-writeback_access : 284290
L2C-writeback_hit : 283267
L2C-writeback_miss : 1023
L2C-prefetch_requested : 2481086
L2C-prefetch_issued : 2480428
L2C-prefetch_useful : 39847
L2C-prefetch_useless : 599407
L2C-Avg_miss_latency : 80.629
L2C-Morteza_fill_l2_prefetches : 521332

LLC TOTAL     ACCESS:    1831626  HIT:    1473872  MISS:     357754
LLC LOAD      ACCESS:     273187  HIT:     205009  MISS:      68178
LLC RFO       ACCESS:      73994  HIT:      31661  MISS:      42333
LLC PREFETCH  ACCESS:    1318139  HIT:    1072248  MISS:     245891
LLC WRITEBACK ACCESS:     166306  HIT:     164954  MISS:       1352
LLC PREFETCH  REQUESTED:          0  ISSUED:          0  USEFUL:      30544  USELESS:     205353
LLC AVERAGE MISS LATENCY: 189.146 cycles
LLC

SHEET
LLC-total_access : 1831626
LLC-total_hit : 1473872
LLC-total_miss : 357754
LLC-load_access : 273187
LLC-load_hit : 205009
LLC-load_miss : 68178
LLC-rfo_access : 73994
LLC-rfo_hit : 31661
LLC-rfo_miss : 42333
LLC-prefetch_access : 1318139
LLC-prefetch_hit : 1072248
LLC-prefetch_miss : 245891
LLC-writeback_access : 166306
LLC-writeback_hit : 164954
LLC-writeback_miss : 1352
LLC-prefetch_requested : 0
LLC-prefetch_issued : 0
LLC-prefetch_useful : 30544
LLC-prefetch_useless : 205353
LLC-Avg_miss_latency : 189.146
LLC-Morteza_fill_l2_prefetches : 595467

Major fault: 0 Minor fault: 7832



Printing Logs
statHeadFound: 778191
statHeadMissing: 654164
statStreamBufferHit: 12356717
statPrefetchEntryFound: 3814730
statCompactorMatch: 12227933
statStreamTrackerLookup: 13789072
statRecord: 1561139
statGetPointer: 1432355
statEnqueuePrefetch: 12203148
statPrefetchQueueIsFull: 300
StreamBufferHitRate: 0.896124
Regions' size: 9276
next_region_correct: 1118224
next_region_wrong: 433621
next_region_correct_prediction: 0.720577
statStreamBufferLookups: 992813184
statL1iLookups: 97625184
statCompactorLookups: 496406592
morteza: start

SHEET
mana_table_access_counter : 2290113
mana_table_multiple_access_counter : 3887149
hobp_table_access_counter : 21556584
sab_access_counter : 16171447
srq_access_counter : 12979529

morteza: end
CPU 0 L1D next line prefetcher final stats

DRAM Statistics
 CHANNEL 0
 RQ ROW_BUFFER_HIT:      82971  ROW_BUFFER_MISS:     273379
 DBUS_CONGESTED:     187178
 WQ ROW_BUFFER_HIT:      22315  ROW_BUFFER_MISS:      79649  FULL:          0

 AVG_CONGESTED_CYCLE: 5

CPU 0 Branch Prediction Accuracy: 95.439% MPKI: 9.02702 Average ROB Occupancy at Mispredict: 66.1357

Branch types
NOT_BRANCH: 40104086 80.2082%
BRANCH_DIRECT_JUMP: 497928 0.995856%
BRANCH_INDIRECT: 130587 0.261174%
BRANCH_CONDITIONAL: 7219017 14.438%
BRANCH_DIRECT_CALL: 625807 1.25161%
BRANCH_INDIRECT_CALL: 389787 0.779574%
BRANCH_RETURN: 1032747 2.06549%
BRANCH_OTHER: 0 0%

