Initialize SIGNATURE TABLE
ST_SET: 1
ST_WAY: 256
ST_TAG_BIT: 16
ST_TAG_MASK: ffff

Initialize PATTERN TABLE
PT_SET: 512
PT_WAY: 4
SIG_DELTA_BIT: 7
C_SIG_BIT: 4
C_DELTA_BIT: 4

Initialize PREFETCH FILTER
FILTER_SET: 1024
MANA initialize 
tds: 2 tdm: 4
size MANA SINGLE: 74 KB
size MANA NULTIPLE: 43 KB
size HOBPT: 5 KB
size SRQ: 0.14502 KB
size SABs: 0.290039 KB
size prefetch queue: 0.453125 KB
total: 122.888 KB

*** ChampSim Multicore Out-of-Order Simulator ***

Warmup Instructions: 50000000
Simulation Instructions: 50000000
Number of CPUs: 1
LLC sets: 2048
LLC ways: 16
Off-chip DRAM Size: 4096 MB Channels: 1 Width: 64-bit Data Rate: 3200 MT/s

CPU 0 runs ../dpc3_traces/server_022.champsimtrace.xz
CPU 0 L1D next line prefetcher
Heartbeat CPU 0 instructions: 10000002 cycles: 3623938 heartbeat IPC: 2.75943 cumulative IPC: 2.75943 (Simulation time: 0 hr 1 min 24 sec) 
Heartbeat CPU 0 instructions: 20000001 cycles: 7254226 heartbeat IPC: 2.7546 cumulative IPC: 2.75701 (Simulation time: 0 hr 2 min 46 sec) 
Heartbeat CPU 0 instructions: 30000003 cycles: 10878014 heartbeat IPC: 2.75954 cumulative IPC: 2.75786 (Simulation time: 0 hr 4 min 15 sec) 
Heartbeat CPU 0 instructions: 40000003 cycles: 14509244 heartbeat IPC: 2.75389 cumulative IPC: 2.75686 (Simulation time: 0 hr 5 min 41 sec) 
Heartbeat CPU 0 instructions: 50000002 cycles: 18130429 heartbeat IPC: 2.76153 cumulative IPC: 2.75779 (Simulation time: 0 hr 7 min 6 sec) 

Warmup complete CPU 0 instructions: 50000002 cycles: 18130429 (Simulation time: 0 hr 7 min 6 sec) 

Heartbeat CPU 0 instructions: 60000000 cycles: 35206620 heartbeat IPC: 0.585611 cumulative IPC: 0.585611 (Simulation time: 0 hr 9 min 2 sec) 
Heartbeat CPU 0 instructions: 70000001 cycles: 52458335 heartbeat IPC: 0.579653 cumulative IPC: 0.582616 (Simulation time: 0 hr 11 min 1 sec) 
Heartbeat CPU 0 instructions: 80000001 cycles: 69522807 heartbeat IPC: 0.586013 cumulative IPC: 0.583744 (Simulation time: 0 hr 13 min 2 sec) 
Heartbeat CPU 0 instructions: 90000003 cycles: 86832857 heartbeat IPC: 0.577699 cumulative IPC: 0.582221 (Simulation time: 0 hr 15 min 15 sec) 
Heartbeat CPU 0 instructions: 100000003 cycles: 103794482 heartbeat IPC: 0.589566 cumulative IPC: 0.583675 (Simulation time: 0 hr 17 min 10 sec) 
Finished CPU 0 instructions: 50000001 cycles: 85664053 cumulative IPC: 0.583675 (Simulation time: 0 hr 17 min 10 sec) 

ChampSim completed all CPUs

Region of Interest Statistics

CPU 0 cumulative IPC: 0.583675 instructions: 50000001 cycles: 85664053

SHEET
IPC : 0.583675

L1D TOTAL     ACCESS:   18733268  HIT:   16522555  MISS:    2210713
L1D LOAD      ACCESS:    7067098  HIT:    6357145  MISS:     709953
L1D RFO       ACCESS:    5897600  HIT:    4918106  MISS:     979494
L1D PREFETCH  ACCESS:    5768570  HIT:    5247304  MISS:     521266
L1D WRITEBACK ACCESS:          0  HIT:          0  MISS:          0
L1D PREFETCH  REQUESTED:    7109122  ISSUED:    6900993  USEFUL:     200095  USELESS:     321176
L1D AVERAGE MISS LATENCY: 178.867 cycles
L1D

SHEET
L1D-total_access : 18733268
L1D-total_hit : 16522555
L1D-total_miss : 2210713
L1D-load_access : 7067098
L1D-load_hit : 6357145
L1D-load_miss : 709953
L1D-rfo_access : 5897600
L1D-rfo_hit : 4918106
L1D-rfo_miss : 979494
L1D-prefetch_access : 5768570
L1D-prefetch_hit : 5247304
L1D-prefetch_miss : 521266
L1D-writeback_access : 0
L1D-writeback_hit : 0
L1D-writeback_miss : 0
L1D-prefetch_requested : 7109122
L1D-prefetch_issued : 6900993
L1D-prefetch_useful : 200095
L1D-prefetch_useless : 321176
L1D-Avg_miss_latency : 178.867
L1D-Morteza_fill_l2_prefetches : 0

L1I TOTAL     ACCESS:   14709302  HIT:   12205430  MISS:    2503872
L1I LOAD      ACCESS:   10062318  HIT:    9740929  MISS:     321389
L1I RFO       ACCESS:          0  HIT:          0  MISS:          0
L1I PREFETCH  ACCESS:    4646984  HIT:    2464501  MISS:    2182483
L1I WRITEBACK ACCESS:          0  HIT:          0  MISS:          0
L1I PREFETCH  REQUESTED:    4986753  ISSUED:    4986530  USEFUL:    2113249  USELESS:      69236
L1I AVERAGE MISS LATENCY: 16.1178 cycles
L1I

SHEET
L1I-total_access : 14709302
L1I-total_hit : 12205430
L1I-total_miss : 2503872
L1I-load_access : 10062318
L1I-load_hit : 9740929
L1I-load_miss : 321389
L1I-rfo_access : 0
L1I-rfo_hit : 0
L1I-rfo_miss : 0
L1I-prefetch_access : 4646984
L1I-prefetch_hit : 2464501
L1I-prefetch_miss : 2182483
L1I-writeback_access : 0
L1I-writeback_hit : 0
L1I-writeback_miss : 0
L1I-prefetch_requested : 4986753
L1I-prefetch_issued : 4986530
L1I-prefetch_useful : 2113249
L1I-prefetch_useless : 69236
L1I-Avg_miss_latency : 16.1178
L1I-Morteza_fill_l2_prefetches : 0

L2C TOTAL     ACCESS:    6810662  HIT:    4944169  MISS:    1866493
L2C LOAD      ACCESS:     570552  HIT:     319819  MISS:     250733
L2C RFO       ACCESS:     979050  HIT:      20054  MISS:     958996
L2C PREFETCH  ACCESS:    4075900  HIT:    3421658  MISS:     654242
L2C WRITEBACK ACCESS:    1185160  HIT:    1182638  MISS:       2522
L2C PREFETCH  REQUESTED:    3973002  ISSUED:    3969205  USEFUL:      27287  USELESS:     627078
L2C AVERAGE MISS LATENCY: 218.079 cycles
L2C

SHEET
L2C-total_access : 6810662
L2C-total_hit : 4944169
L2C-total_miss : 1866493
L2C-load_access : 570552
L2C-load_hit : 319819
L2C-load_miss : 250733
L2C-rfo_access : 979050
L2C-rfo_hit : 20054
L2C-rfo_miss : 958996
L2C-prefetch_access : 4075900
L2C-prefetch_hit : 3421658
L2C-prefetch_miss : 654242
L2C-writeback_access : 1185160
L2C-writeback_hit : 1182638
L2C-writeback_miss : 2522
L2C-prefetch_requested : 3973002
L2C-prefetch_issued : 3969205
L2C-prefetch_useful : 27287
L2C-prefetch_useless : 627078
L2C-Avg_miss_latency : 218.079
L2C-Morteza_fill_l2_prefetches : 919522

LLC TOTAL     ACCESS:    4004289  HIT:    2614157  MISS:    1390132
LLC LOAD      ACCESS:     250610  HIT:     173469  MISS:      77141
LLC RFO       ACCESS:     958995  HIT:     142341  MISS:     816654
LLC PREFETCH  ACCESS:    1677051  HIT:    1182929  MISS:     494122
LLC WRITEBACK ACCESS:    1117633  HIT:    1115418  MISS:       2215
LLC PREFETCH  REQUESTED:          0  ISSUED:          0  USEFUL:      27339  USELESS:     467263
LLC AVERAGE MISS LATENCY: 288.167 cycles
LLC

SHEET
LLC-total_access : 4004289
LLC-total_hit : 2614157
LLC-total_miss : 1390132
LLC-load_access : 250610
LLC-load_hit : 173469
LLC-load_miss : 77141
LLC-rfo_access : 958995
LLC-rfo_hit : 142341
LLC-rfo_miss : 816654
LLC-prefetch_access : 1677051
LLC-prefetch_hit : 1182929
LLC-prefetch_miss : 494122
LLC-writeback_access : 1117633
LLC-writeback_hit : 1115418
LLC-writeback_miss : 2215
LLC-prefetch_requested : 0
LLC-prefetch_issued : 0
LLC-prefetch_useful : 27339
LLC-prefetch_useless : 467263
LLC-Avg_miss_latency : 288.167
LLC-Morteza_fill_l2_prefetches : 849805

Major fault: 0 Minor fault: 23559



Printing Logs
statHeadFound: 251179
statHeadMissing: 1192716
statStreamBufferHit: 12126841
statPrefetchEntryFound: 3187891
statCompactorMatch: 11176698
statStreamTrackerLookup: 13570736
statRecord: 2394038
statGetPointer: 1443895
statEnqueuePrefetch: 9960802
statPrefetchQueueIsFull: 0
StreamBufferHitRate: 0.893602
Regions' size: 1312
next_region_correct: 2019999
next_region_wrong: 372709
next_region_correct_prediction: 0.844231
statStreamBufferLookups: 977092992
statL1iLookups: 79686416
statCompactorLookups: 488546496
morteza: start

SHEET
mana_table_access_counter : 3837371
mana_table_multiple_access_counter : 1997186
hobp_table_access_counter : 24317591
sab_access_counter : 15314732
srq_access_counter : 14987641

morteza: end
CPU 0 L1D next line prefetcher final stats

DRAM Statistics
 CHANNEL 0
 RQ ROW_BUFFER_HIT:     399104  ROW_BUFFER_MISS:     988546
 DBUS_CONGESTED:    1430369
 WQ ROW_BUFFER_HIT:     270464  ROW_BUFFER_MISS:     630813  FULL:          0

 AVG_CONGESTED_CYCLE: 6

CPU 0 Branch Prediction Accuracy: 99.8317% MPKI: 0.27564 Average ROB Occupancy at Mispredict: 215.489

Branch types
NOT_BRANCH: 41811153 83.6223%
BRANCH_DIRECT_JUMP: 445742 0.891484%
BRANCH_INDIRECT: 48876 0.097752%
BRANCH_CONDITIONAL: 5859408 11.7188%
BRANCH_DIRECT_CALL: 758268 1.51654%
BRANCH_INDIRECT_CALL: 159103 0.318206%
BRANCH_RETURN: 917372 1.83474%
BRANCH_OTHER: 0 0%

