Initialize SIGNATURE TABLE
ST_SET: 1
ST_WAY: 256
ST_TAG_BIT: 16
ST_TAG_MASK: ffff

Initialize PATTERN TABLE
PT_SET: 512
PT_WAY: 4
SIG_DELTA_BIT: 7
C_SIG_BIT: 4
C_DELTA_BIT: 4

Initialize PREFETCH FILTER
FILTER_SET: 1024
MANA initialize 
tds: 2 tdm: 4
size MANA SINGLE: 74 KB
size MANA NULTIPLE: 43 KB
size HOBPT: 5 KB
size SRQ: 0.14502 KB
size SABs: 0.290039 KB
size prefetch queue: 0.453125 KB
total: 122.888 KB

*** ChampSim Multicore Out-of-Order Simulator ***

Warmup Instructions: 50000000
Simulation Instructions: 50000000
Number of CPUs: 1
LLC sets: 2048
LLC ways: 16
Off-chip DRAM Size: 4096 MB Channels: 1 Width: 64-bit Data Rate: 3200 MT/s

CPU 0 runs ../dpc3_traces/server_018.champsimtrace.xz
CPU 0 L1D next line prefetcher
Heartbeat CPU 0 instructions: 10000003 cycles: 3616780 heartbeat IPC: 2.76489 cumulative IPC: 2.76489 (Simulation time: 0 hr 1 min 29 sec) 
Heartbeat CPU 0 instructions: 20000001 cycles: 7238164 heartbeat IPC: 2.76137 cumulative IPC: 2.76313 (Simulation time: 0 hr 2 min 51 sec) 
Heartbeat CPU 0 instructions: 30000003 cycles: 10713107 heartbeat IPC: 2.87775 cumulative IPC: 2.80031 (Simulation time: 0 hr 4 min 11 sec) 
Heartbeat CPU 0 instructions: 40000000 cycles: 14224712 heartbeat IPC: 2.8477 cumulative IPC: 2.81201 (Simulation time: 0 hr 5 min 35 sec) 
Heartbeat CPU 0 instructions: 50000003 cycles: 17841850 heartbeat IPC: 2.76462 cumulative IPC: 2.8024 (Simulation time: 0 hr 7 min 6 sec) 

Warmup complete CPU 0 instructions: 50000003 cycles: 17841850 (Simulation time: 0 hr 7 min 6 sec) 

Heartbeat CPU 0 instructions: 60000000 cycles: 35474421 heartbeat IPC: 0.567132 cumulative IPC: 0.567132 (Simulation time: 0 hr 9 min 6 sec) 
Heartbeat CPU 0 instructions: 70000001 cycles: 53263869 heartbeat IPC: 0.562131 cumulative IPC: 0.56462 (Simulation time: 0 hr 11 min 0 sec) 
Heartbeat CPU 0 instructions: 80000000 cycles: 70911703 heartbeat IPC: 0.566642 cumulative IPC: 0.565293 (Simulation time: 0 hr 12 min 58 sec) 
Heartbeat CPU 0 instructions: 90000002 cycles: 88661712 heartbeat IPC: 0.56338 cumulative IPC: 0.564813 (Simulation time: 0 hr 14 min 57 sec) 
Heartbeat CPU 0 instructions: 100000001 cycles: 106370830 heartbeat IPC: 0.564681 cumulative IPC: 0.564787 (Simulation time: 0 hr 16 min 58 sec) 
Finished CPU 0 instructions: 50000002 cycles: 88528981 cumulative IPC: 0.564787 (Simulation time: 0 hr 16 min 58 sec) 

ChampSim completed all CPUs

Region of Interest Statistics

CPU 0 cumulative IPC: 0.564787 instructions: 50000002 cycles: 88528981

SHEET
IPC : 0.564787

L1D TOTAL     ACCESS:   18657741  HIT:   16440003  MISS:    2217738
L1D LOAD      ACCESS:    7061187  HIT:    6333557  MISS:     727630
L1D RFO       ACCESS:    5812278  HIT:    4860108  MISS:     952170
L1D PREFETCH  ACCESS:    5784276  HIT:    5246338  MISS:     537938
L1D WRITEBACK ACCESS:          0  HIT:          0  MISS:          0
L1D PREFETCH  REQUESTED:    7101968  ISSUED:    6899281  USEFUL:     198157  USELESS:     339870
L1D AVERAGE MISS LATENCY: 174.487 cycles
L1D

SHEET
L1D-total_access : 18657741
L1D-total_hit : 16440003
L1D-total_miss : 2217738
L1D-load_access : 7061187
L1D-load_hit : 6333557
L1D-load_miss : 727630
L1D-rfo_access : 5812278
L1D-rfo_hit : 4860108
L1D-rfo_miss : 952170
L1D-prefetch_access : 5784276
L1D-prefetch_hit : 5246338
L1D-prefetch_miss : 537938
L1D-writeback_access : 0
L1D-writeback_hit : 0
L1D-writeback_miss : 0
L1D-prefetch_requested : 7101968
L1D-prefetch_issued : 6899281
L1D-prefetch_useful : 198157
L1D-prefetch_useless : 339870
L1D-Avg_miss_latency : 174.487
L1D-Morteza_fill_l2_prefetches : 0

L1I TOTAL     ACCESS:   14579900  HIT:   12148619  MISS:    2431281
L1I LOAD      ACCESS:   10038235  HIT:    9720864  MISS:     317371
L1I RFO       ACCESS:          0  HIT:          0  MISS:          0
L1I PREFETCH  ACCESS:    4541665  HIT:    2427755  MISS:    2113910
L1I WRITEBACK ACCESS:          0  HIT:          0  MISS:          0
L1I PREFETCH  REQUESTED:    4863761  ISSUED:    4863746  USEFUL:    2064917  USELESS:      48982
L1I AVERAGE MISS LATENCY: 16.5414 cycles
L1I

SHEET
L1I-total_access : 14579900
L1I-total_hit : 12148619
L1I-total_miss : 2431281
L1I-load_access : 10038235
L1I-load_hit : 9720864
L1I-load_miss : 317371
L1I-rfo_access : 0
L1I-rfo_hit : 0
L1I-rfo_miss : 0
L1I-prefetch_access : 4541665
L1I-prefetch_hit : 2427755
L1I-prefetch_miss : 2113910
L1I-writeback_access : 0
L1I-writeback_hit : 0
L1I-writeback_miss : 0
L1I-prefetch_requested : 4863761
L1I-prefetch_issued : 4863746
L1I-prefetch_useful : 2064917
L1I-prefetch_useless : 48982
L1I-Avg_miss_latency : 16.5414
L1I-Morteza_fill_l2_prefetches : 0

L2C TOTAL     ACCESS:    6746453  HIT:    4880000  MISS:    1866453
L2C LOAD      ACCESS:     602474  HIT:     332420  MISS:     270054
L2C RFO       ACCESS:     951711  HIT:      19743  MISS:     931968
L2C PREFETCH  ACCESS:    4022255  HIT:    3361136  MISS:     661119
L2C WRITEBACK ACCESS:    1170013  HIT:    1166701  MISS:       3312
L2C PREFETCH  REQUESTED:    4033105  ISSUED:    4029311  USEFUL:      29657  USELESS:     632326
L2C AVERAGE MISS LATENCY: 212.86 cycles
L2C

SHEET
L2C-total_access : 6746453
L2C-total_hit : 4880000
L2C-total_miss : 1866453
L2C-load_access : 602474
L2C-load_hit : 332420
L2C-load_miss : 270054
L2C-rfo_access : 951711
L2C-rfo_hit : 19743
L2C-rfo_miss : 931968
L2C-prefetch_access : 4022255
L2C-prefetch_hit : 3361136
L2C-prefetch_miss : 661119
L2C-writeback_access : 1170013
L2C-writeback_hit : 1166701
L2C-writeback_miss : 3312
L2C-prefetch_requested : 4033105
L2C-prefetch_issued : 4029311
L2C-prefetch_useful : 29657
L2C-prefetch_useless : 632326
L2C-Avg_miss_latency : 212.86
L2C-Morteza_fill_l2_prefetches : 935833

LLC TOTAL     ACCESS:    4030805  HIT:    2586275  MISS:    1444530
LLC LOAD      ACCESS:     269932  HIT:     169801  MISS:     100131
LLC RFO       ACCESS:     931966  HIT:     135914  MISS:     796052
LLC PREFETCH  ACCESS:    1726617  HIT:    1180198  MISS:     546419
LLC WRITEBACK ACCESS:    1102290  HIT:    1100362  MISS:       1928
LLC PREFETCH  REQUESTED:          0  ISSUED:          0  USEFUL:      30053  USELESS:     516770
LLC AVERAGE MISS LATENCY: 276.305 cycles
LLC

SHEET
LLC-total_access : 4030805
LLC-total_hit : 2586275
LLC-total_miss : 1444530
LLC-load_access : 269932
LLC-load_hit : 169801
LLC-load_miss : 100131
LLC-rfo_access : 931966
LLC-rfo_hit : 135914
LLC-rfo_miss : 796052
LLC-prefetch_access : 1726617
LLC-prefetch_hit : 1180198
LLC-prefetch_miss : 546419
LLC-writeback_access : 1102290
LLC-writeback_hit : 1100362
LLC-writeback_miss : 1928
LLC-prefetch_requested : 0
LLC-prefetch_issued : 0
LLC-prefetch_useful : 30053
LLC-prefetch_useless : 516770
LLC-Avg_miss_latency : 276.305
LLC-Morteza_fill_l2_prefetches : 851885

Major fault: 0 Minor fault: 22493



Printing Logs
statHeadFound: 227243
statHeadMissing: 1135721
statStreamBufferHit: 11803255
statPrefetchEntryFound: 2962534
statCompactorMatch: 10937982
statStreamTrackerLookup: 13166219
statRecord: 2228237
statGetPointer: 1362964
statEnqueuePrefetch: 9253677
statPrefetchQueueIsFull: 0
StreamBufferHitRate: 0.89648
Regions' size: 1331
next_region_correct: 1878708
next_region_wrong: 348180
next_region_correct_prediction: 0.843647
statStreamBufferLookups: 947967768
statL1iLookups: 74029416
statCompactorLookups: 473983884
morteza: start

SHEET
mana_table_access_counter : 3547138
mana_table_multiple_access_counter : 1872397
hobp_table_access_counter : 22781702
sab_access_counter : 14765789
srq_access_counter : 14310519

morteza: end
CPU 0 L1D next line prefetcher final stats

DRAM Statistics
 CHANNEL 0
 RQ ROW_BUFFER_HIT:     407865  ROW_BUFFER_MISS:    1034439
 DBUS_CONGESTED:    1442967
 WQ ROW_BUFFER_HIT:     262930  ROW_BUFFER_MISS:     633247  FULL:          0

 AVG_CONGESTED_CYCLE: 6

CPU 0 Branch Prediction Accuracy: 99.7114% MPKI: 0.47678 Average ROB Occupancy at Mispredict: 206.069

Branch types
NOT_BRANCH: 41741008 83.482%
BRANCH_DIRECT_JUMP: 458652 0.917304%
BRANCH_INDIRECT: 48282 0.096564%
BRANCH_CONDITIONAL: 5930881 11.8618%
BRANCH_DIRECT_CALL: 744230 1.48846%
BRANCH_INDIRECT_CALL: 166336 0.332672%
BRANCH_RETURN: 910589 1.82118%
BRANCH_OTHER: 0 0%

