Initialize SIGNATURE TABLE
ST_SET: 1
ST_WAY: 256
ST_TAG_BIT: 16
ST_TAG_MASK: ffff

Initialize PATTERN TABLE
PT_SET: 512
PT_WAY: 4
SIG_DELTA_BIT: 7
C_SIG_BIT: 4
C_DELTA_BIT: 4

Initialize PREFETCH FILTER
FILTER_SET: 1024
MANA initialize 
tds: 2 tdm: 4
size MANA SINGLE: 74 KB
size MANA NULTIPLE: 43 KB
size HOBPT: 5 KB
size SRQ: 0.14502 KB
size SABs: 0.290039 KB
size prefetch queue: 0.453125 KB
total: 122.888 KB

*** ChampSim Multicore Out-of-Order Simulator ***

Warmup Instructions: 50000000
Simulation Instructions: 50000000
Number of CPUs: 1
LLC sets: 2048
LLC ways: 16
Off-chip DRAM Size: 4096 MB Channels: 1 Width: 64-bit Data Rate: 3200 MT/s

CPU 0 runs ../dpc3_traces/server_017.champsimtrace.xz
CPU 0 L1D next line prefetcher
Heartbeat CPU 0 instructions: 10000001 cycles: 3622951 heartbeat IPC: 2.76018 cumulative IPC: 2.76018 (Simulation time: 0 hr 1 min 26 sec) 
Heartbeat CPU 0 instructions: 20000000 cycles: 7243783 heartbeat IPC: 2.7618 cumulative IPC: 2.76099 (Simulation time: 0 hr 2 min 56 sec) 
Heartbeat CPU 0 instructions: 30000002 cycles: 10871257 heartbeat IPC: 2.75674 cumulative IPC: 2.75957 (Simulation time: 0 hr 4 min 23 sec) 
Heartbeat CPU 0 instructions: 40000000 cycles: 14493707 heartbeat IPC: 2.76056 cumulative IPC: 2.75982 (Simulation time: 0 hr 5 min 47 sec) 
Heartbeat CPU 0 instructions: 50000001 cycles: 18127017 heartbeat IPC: 2.75231 cumulative IPC: 2.75831 (Simulation time: 0 hr 7 min 12 sec) 

Warmup complete CPU 0 instructions: 50000001 cycles: 18127017 (Simulation time: 0 hr 7 min 12 sec) 

Heartbeat CPU 0 instructions: 60000002 cycles: 35849304 heartbeat IPC: 0.564261 cumulative IPC: 0.564261 (Simulation time: 0 hr 9 min 6 sec) 
Heartbeat CPU 0 instructions: 70000002 cycles: 53694072 heartbeat IPC: 0.560388 cumulative IPC: 0.562318 (Simulation time: 0 hr 10 min 58 sec) 
Heartbeat CPU 0 instructions: 80000000 cycles: 71386562 heartbeat IPC: 0.565211 cumulative IPC: 0.563279 (Simulation time: 0 hr 12 min 57 sec) 
Heartbeat CPU 0 instructions: 90000002 cycles: 94864537 heartbeat IPC: 0.425931 cumulative IPC: 0.521257 (Simulation time: 0 hr 15 min 2 sec) 
Heartbeat CPU 0 instructions: 100000003 cycles: 115112280 heartbeat IPC: 0.493882 cumulative IPC: 0.515542 (Simulation time: 0 hr 17 min 12 sec) 
Finished CPU 0 instructions: 50000002 cycles: 96985263 cumulative IPC: 0.515542 (Simulation time: 0 hr 17 min 12 sec) 

ChampSim completed all CPUs

Region of Interest Statistics

CPU 0 cumulative IPC: 0.515542 instructions: 50000002 cycles: 96985263

SHEET
IPC : 0.515542

L1D TOTAL     ACCESS:   18410669  HIT:   16245098  MISS:    2165571
L1D LOAD      ACCESS:    7037806  HIT:    6288713  MISS:     749093
L1D RFO       ACCESS:    5527483  HIT:    4668354  MISS:     859129
L1D PREFETCH  ACCESS:    5845380  HIT:    5288031  MISS:     557349
L1D WRITEBACK ACCESS:          0  HIT:          0  MISS:          0
L1D PREFETCH  REQUESTED:    7074845  ISSUED:    6884807  USEFUL:     194993  USELESS:     362417
L1D AVERAGE MISS LATENCY: 173.531 cycles
L1D

SHEET
L1D-total_access : 18410669
L1D-total_hit : 16245098
L1D-total_miss : 2165571
L1D-load_access : 7037806
L1D-load_hit : 6288713
L1D-load_miss : 749093
L1D-rfo_access : 5527483
L1D-rfo_hit : 4668354
L1D-rfo_miss : 859129
L1D-prefetch_access : 5845380
L1D-prefetch_hit : 5288031
L1D-prefetch_miss : 557349
L1D-writeback_access : 0
L1D-writeback_hit : 0
L1D-writeback_miss : 0
L1D-prefetch_requested : 7074845
L1D-prefetch_issued : 6884807
L1D-prefetch_useful : 194993
L1D-prefetch_useless : 362417
L1D-Avg_miss_latency : 173.531
L1D-Morteza_fill_l2_prefetches : 0

L1I TOTAL     ACCESS:   13957683  HIT:   11762440  MISS:    2195243
L1I LOAD      ACCESS:    9822316  HIT:    9536491  MISS:     285825
L1I RFO       ACCESS:          0  HIT:          0  MISS:          0
L1I PREFETCH  ACCESS:    4135367  HIT:    2225949  MISS:    1909418
L1I WRITEBACK ACCESS:          0  HIT:          0  MISS:          0
L1I PREFETCH  REQUESTED:    4426786  ISSUED:    4426732  USEFUL:    1866181  USELESS:      43237
L1I AVERAGE MISS LATENCY: 16.6493 cycles
L1I

SHEET
L1I-total_access : 13957683
L1I-total_hit : 11762440
L1I-total_miss : 2195243
L1I-load_access : 9822316
L1I-load_hit : 9536491
L1I-load_miss : 285825
L1I-rfo_access : 0
L1I-rfo_hit : 0
L1I-rfo_miss : 0
L1I-prefetch_access : 4135367
L1I-prefetch_hit : 2225949
L1I-prefetch_miss : 1909418
L1I-writeback_access : 0
L1I-writeback_hit : 0
L1I-writeback_miss : 0
L1I-prefetch_requested : 4426786
L1I-prefetch_issued : 4426732
L1I-prefetch_useful : 1866181
L1I-prefetch_useless : 43237
L1I-Avg_miss_latency : 16.6493
L1I-Morteza_fill_l2_prefetches : 0

L2C TOTAL     ACCESS:    6337388  HIT:    4490294  MISS:    1847094
L2C LOAD      ACCESS:     632319  HIT:     299013  MISS:     333306
L2C RFO       ACCESS:     858717  HIT:      18167  MISS:     840550
L2C PREFETCH  ACCESS:    3723484  HIT:    3053235  MISS:     670249
L2C WRITEBACK ACCESS:    1122868  HIT:    1119879  MISS:       2989
L2C PREFETCH  REQUESTED:    3873290  ISSUED:    3870210  USEFUL:      27736  USELESS:     643116
L2C AVERAGE MISS LATENCY: 207.507 cycles
L2C

SHEET
L2C-total_access : 6337388
L2C-total_hit : 4490294
L2C-total_miss : 1847094
L2C-load_access : 632319
L2C-load_hit : 299013
L2C-load_miss : 333306
L2C-rfo_access : 858717
L2C-rfo_hit : 18167
L2C-rfo_miss : 840550
L2C-prefetch_access : 3723484
L2C-prefetch_hit : 3053235
L2C-prefetch_miss : 670249
L2C-writeback_access : 1122868
L2C-writeback_hit : 1119879
L2C-writeback_miss : 2989
L2C-prefetch_requested : 3873290
L2C-prefetch_issued : 3870210
L2C-prefetch_useful : 27736
L2C-prefetch_useless : 643116
L2C-Avg_miss_latency : 207.507
L2C-Morteza_fill_l2_prefetches : 848499

LLC TOTAL     ACCESS:    4069561  HIT:    2501216  MISS:    1568345
LLC LOAD      ACCESS:     333194  HIT:     176056  MISS:     157138
LLC RFO       ACCESS:     840546  HIT:     122469  MISS:     718077
LLC PREFETCH  ACCESS:    1834189  HIT:    1143805  MISS:     690384
LLC WRITEBACK ACCESS:    1061632  HIT:    1058886  MISS:       2746
LLC PREFETCH  REQUESTED:          0  ISSUED:          0  USEFUL:      48025  USELESS:     641840
LLC AVERAGE MISS LATENCY: 259.188 cycles
LLC

SHEET
LLC-total_access : 4069561
LLC-total_hit : 2501216
LLC-total_miss : 1568345
LLC-load_access : 333194
LLC-load_hit : 176056
LLC-load_miss : 157138
LLC-rfo_access : 840546
LLC-rfo_hit : 122469
LLC-rfo_miss : 718077
LLC-prefetch_access : 1834189
LLC-prefetch_hit : 1143805
LLC-prefetch_miss : 690384
LLC-writeback_access : 1061632
LLC-writeback_hit : 1058886
LLC-writeback_miss : 2746
LLC-prefetch_requested : 0
LLC-prefetch_issued : 0
LLC-prefetch_useful : 48025
LLC-prefetch_useless : 641840
LLC-Avg_miss_latency : 259.188
LLC-Morteza_fill_l2_prefetches : 840211

Major fault: 0 Minor fault: 24739



Printing Logs
statHeadFound: 229279
statHeadMissing: 493415
statStreamBufferHit: 12488794
statPrefetchEntryFound: 2987572
statCompactorMatch: 10980768
statStreamTrackerLookup: 13211488
statRecord: 2230720
statGetPointer: 722694
statEnqueuePrefetch: 9309199
statPrefetchQueueIsFull: 0
StreamBufferHitRate: 0.945298
Regions' size: 1202
next_region_correct: 1880949
next_region_wrong: 348551
next_region_correct_prediction: 0.843664
statStreamBufferLookups: 951227136
statL1iLookups: 74473592
statCompactorLookups: 475613568
morteza: start

SHEET
mana_table_access_counter : 3639437
mana_table_multiple_access_counter : 1809397
hobp_table_access_counter : 17694082
sab_access_counter : 15476366
srq_access_counter : 14356576

morteza: end
CPU 0 L1D next line prefetcher final stats

DRAM Statistics
 CHANNEL 0
 RQ ROW_BUFFER_HIT:     374173  ROW_BUFFER_MISS:    1191217
 DBUS_CONGESTED:    1503961
 WQ ROW_BUFFER_HIT:     257725  ROW_BUFFER_MISS:     617529  FULL:          0

 AVG_CONGESTED_CYCLE: 6

CPU 0 Branch Prediction Accuracy: 99.2833% MPKI: 1.20568 Average ROB Occupancy at Mispredict: 179.968

Branch types
NOT_BRANCH: 41588350 83.1767%
BRANCH_DIRECT_JUMP: 464501 0.929002%
BRANCH_INDIRECT: 45704 0.091408%
BRANCH_CONDITIONAL: 6147408 12.2948%
BRANCH_DIRECT_CALL: 675450 1.3509%
BRANCH_INDIRECT_CALL: 201532 0.403064%
BRANCH_RETURN: 876985 1.75397%
BRANCH_OTHER: 0 0%

