Initialize SIGNATURE TABLE
ST_SET: 1
ST_WAY: 256
ST_TAG_BIT: 16
ST_TAG_MASK: ffff

Initialize PATTERN TABLE
PT_SET: 512
PT_WAY: 4
SIG_DELTA_BIT: 7
C_SIG_BIT: 4
C_DELTA_BIT: 4

Initialize PREFETCH FILTER
FILTER_SET: 1024
MANA initialize 
tds: 2 tdm: 4
size MANA SINGLE: 74 KB
size MANA NULTIPLE: 43 KB
size HOBPT: 5 KB
size SRQ: 0.14502 KB
size SABs: 0.290039 KB
size prefetch queue: 0.453125 KB
total: 122.888 KB

*** ChampSim Multicore Out-of-Order Simulator ***

Warmup Instructions: 50000000
Simulation Instructions: 50000000
Number of CPUs: 1
LLC sets: 2048
LLC ways: 16
Off-chip DRAM Size: 4096 MB Channels: 1 Width: 64-bit Data Rate: 3200 MT/s

CPU 0 runs ../dpc3_traces/server_014.champsimtrace.xz
CPU 0 L1D next line prefetcher
Heartbeat CPU 0 instructions: 10000003 cycles: 3519543 heartbeat IPC: 2.84128 cumulative IPC: 2.84128 (Simulation time: 0 hr 1 min 18 sec) 
Heartbeat CPU 0 instructions: 20000000 cycles: 7106417 heartbeat IPC: 2.78794 cumulative IPC: 2.81436 (Simulation time: 0 hr 2 min 39 sec) 
Heartbeat CPU 0 instructions: 30000001 cycles: 10647918 heartbeat IPC: 2.82366 cumulative IPC: 2.81745 (Simulation time: 0 hr 3 min 58 sec) 
Heartbeat CPU 0 instructions: 40000003 cycles: 14196141 heartbeat IPC: 2.81831 cumulative IPC: 2.81767 (Simulation time: 0 hr 5 min 18 sec) 
Heartbeat CPU 0 instructions: 50000000 cycles: 17744816 heartbeat IPC: 2.81795 cumulative IPC: 2.81772 (Simulation time: 0 hr 6 min 37 sec) 

Warmup complete CPU 0 instructions: 50000001 cycles: 17744817 (Simulation time: 0 hr 6 min 37 sec) 

Heartbeat CPU 0 instructions: 60000000 cycles: 24043156 heartbeat IPC: 1.58772 cumulative IPC: 1.58772 (Simulation time: 0 hr 7 min 56 sec) 
Heartbeat CPU 0 instructions: 70000003 cycles: 30342859 heartbeat IPC: 1.58738 cumulative IPC: 1.58755 (Simulation time: 0 hr 9 min 18 sec) 
*** Reached end of trace for Core: 0 Repeating trace: ../dpc3_traces/server_014.champsimtrace.xz
Heartbeat CPU 0 instructions: 80000001 cycles: 36921272 heartbeat IPC: 1.52012 cumulative IPC: 1.56442 (Simulation time: 0 hr 10 min 40 sec) 
Heartbeat CPU 0 instructions: 90000003 cycles: 44488541 heartbeat IPC: 1.32148 cumulative IPC: 1.49568 (Simulation time: 0 hr 12 min 0 sec) 
Heartbeat CPU 0 instructions: 100000001 cycles: 50995388 heartbeat IPC: 1.53684 cumulative IPC: 1.50373 (Simulation time: 0 hr 13 min 29 sec) 
Finished CPU 0 instructions: 50000000 cycles: 33250571 cumulative IPC: 1.50373 (Simulation time: 0 hr 13 min 29 sec) 

ChampSim completed all CPUs

Region of Interest Statistics

CPU 0 cumulative IPC: 1.50373 instructions: 50000000 cycles: 33250571

SHEET
IPC : 1.50373

L1D TOTAL     ACCESS:   21636902  HIT:   21566042  MISS:      70860
L1D LOAD      ACCESS:    6677593  HIT:    6650659  MISS:      26934
L1D RFO       ACCESS:    8413435  HIT:    8381359  MISS:      32076
L1D PREFETCH  ACCESS:    6545874  HIT:    6534024  MISS:      11850
L1D WRITEBACK ACCESS:          0  HIT:          0  MISS:          0
L1D PREFETCH  REQUESTED:    6681842  ISSUED:    6573438  USEFUL:       3298  USELESS:       8552
L1D AVERAGE MISS LATENCY: 230.706 cycles
L1D

SHEET
L1D-total_access : 21636902
L1D-total_hit : 21566042
L1D-total_miss : 70860
L1D-load_access : 6677593
L1D-load_hit : 6650659
L1D-load_miss : 26934
L1D-rfo_access : 8413435
L1D-rfo_hit : 8381359
L1D-rfo_miss : 32076
L1D-prefetch_access : 6545874
L1D-prefetch_hit : 6534024
L1D-prefetch_miss : 11850
L1D-writeback_access : 0
L1D-writeback_hit : 0
L1D-writeback_miss : 0
L1D-prefetch_requested : 6681842
L1D-prefetch_issued : 6573438
L1D-prefetch_useful : 3298
L1D-prefetch_useless : 8552
L1D-Avg_miss_latency : 230.706
L1D-Morteza_fill_l2_prefetches : 0

L1I TOTAL     ACCESS:   16369467  HIT:   14548209  MISS:    1821258
L1I LOAD      ACCESS:    9619585  HIT:    9323315  MISS:     296270
L1I RFO       ACCESS:          0  HIT:          0  MISS:          0
L1I PREFETCH  ACCESS:    6749882  HIT:    5224894  MISS:    1524988
L1I WRITEBACK ACCESS:          0  HIT:          0  MISS:          0
L1I PREFETCH  REQUESTED:    7149925  ISSUED:    7148930  USEFUL:    1431756  USELESS:      93247
L1I AVERAGE MISS LATENCY: 13.7201 cycles
L1I

SHEET
L1I-total_access : 16369467
L1I-total_hit : 14548209
L1I-total_miss : 1821258
L1I-load_access : 9619585
L1I-load_hit : 9323315
L1I-load_miss : 296270
L1I-rfo_access : 0
L1I-rfo_hit : 0
L1I-rfo_miss : 0
L1I-prefetch_access : 6749882
L1I-prefetch_hit : 5224894
L1I-prefetch_miss : 1524988
L1I-writeback_access : 0
L1I-writeback_hit : 0
L1I-writeback_miss : 0
L1I-prefetch_requested : 7149925
L1I-prefetch_issued : 7148930
L1I-prefetch_useful : 1431756
L1I-prefetch_useless : 93247
L1I-Avg_miss_latency : 13.7201
L1I-Morteza_fill_l2_prefetches : 0

L2C TOTAL     ACCESS:    2589059  HIT:    2516845  MISS:      72214
L2C LOAD      ACCESS:     114101  HIT:      94367  MISS:      19734
L2C RFO       ACCESS:      32018  HIT:       1064  MISS:      30954
L2C PREFETCH  ACCESS:    2404575  HIT:    2383081  MISS:      21494
L2C WRITEBACK ACCESS:      38365  HIT:      38333  MISS:         32
L2C PREFETCH  REQUESTED:    1954600  ISSUED:    1954514  USEFUL:       1718  USELESS:      19854
L2C AVERAGE MISS LATENCY: 259.087 cycles
L2C

SHEET
L2C-total_access : 2589059
L2C-total_hit : 2516845
L2C-total_miss : 72214
L2C-load_access : 114101
L2C-load_hit : 94367
L2C-load_miss : 19734
L2C-rfo_access : 32018
L2C-rfo_hit : 1064
L2C-rfo_miss : 30954
L2C-prefetch_access : 2404575
L2C-prefetch_hit : 2383081
L2C-prefetch_miss : 21494
L2C-writeback_access : 38365
L2C-writeback_hit : 38333
L2C-writeback_miss : 32
L2C-prefetch_requested : 1954600
L2C-prefetch_issued : 1954514
L2C-prefetch_useful : 1718
L2C-prefetch_useless : 19854
L2C-Avg_miss_latency : 259.087
L2C-Morteza_fill_l2_prefetches : 668045

LLC TOTAL     ACCESS:     473344  HIT:     407183  MISS:      66161
LLC LOAD      ACCESS:      18524  HIT:       5635  MISS:      12889
LLC RFO       ACCESS:      30953  HIT:       4608  MISS:      26345
LLC PREFETCH  ACCESS:     388971  HIT:     362150  MISS:      26821
LLC WRITEBACK ACCESS:      34896  HIT:      34790  MISS:        106
LLC PREFETCH  REQUESTED:          0  ISSUED:          0  USEFUL:       4371  USELESS:      23581
LLC AVERAGE MISS LATENCY: 313.926 cycles
LLC

SHEET
LLC-total_access : 473344
LLC-total_hit : 407183
LLC-total_miss : 66161
LLC-load_access : 18524
LLC-load_hit : 5635
LLC-load_miss : 12889
LLC-rfo_access : 30953
LLC-rfo_hit : 4608
LLC-rfo_miss : 26345
LLC-prefetch_access : 388971
LLC-prefetch_hit : 362150
LLC-prefetch_miss : 26821
LLC-writeback_access : 34896
LLC-writeback_hit : 34790
LLC-writeback_miss : 106
LLC-prefetch_requested : 0
LLC-prefetch_issued : 0
LLC-prefetch_useful : 4371
LLC-prefetch_useless : 23581
LLC-Avg_miss_latency : 313.926
LLC-Morteza_fill_l2_prefetches : 354558

Major fault: 0 Minor fault: 1973



Printing Logs
statHeadFound: 534669
statHeadMissing: 444442
statStreamBufferHit: 13658563
statPrefetchEntryFound: 4834649
statCompactorMatch: 11461037
statStreamTrackerLookup: 14637674
statRecord: 3176637
statGetPointer: 979111
statEnqueuePrefetch: 14155216
statPrefetchQueueIsFull: 0
StreamBufferHitRate: 0.93311
Regions' size: 2700
next_region_correct: 2301188
next_region_wrong: 872731
next_region_correct_prediction: 0.72503
statStreamBufferLookups: 1053912528
statL1iLookups: 113241728
statCompactorLookups: 526956264
morteza: start

SHEET
mana_table_access_counter : 4822210
mana_table_multiple_access_counter : 3726892
hobp_table_access_counter : 25379302
sab_access_counter : 18493212
srq_access_counter : 16982876

morteza: end
CPU 0 L1D next line prefetcher final stats

DRAM Statistics
 CHANNEL 0
 RQ ROW_BUFFER_HIT:      28978  ROW_BUFFER_MISS:      37066
 DBUS_CONGESTED:      67032
 WQ ROW_BUFFER_HIT:       8000  ROW_BUFFER_MISS:      24027  FULL:          0

 AVG_CONGESTED_CYCLE: 6

CPU 0 Branch Prediction Accuracy: 99.7719% MPKI: 0.38824 Average ROB Occupancy at Mispredict: 145.648

Branch types
NOT_BRANCH: 41488988 82.978%
BRANCH_DIRECT_JUMP: 449417 0.898834%
BRANCH_INDIRECT: 2330 0.00466%
BRANCH_CONDITIONAL: 5470015 10.94%
BRANCH_DIRECT_CALL: 1172187 2.34437%
BRANCH_INDIRECT_CALL: 122383 0.244766%
BRANCH_RETURN: 1294554 2.58911%
BRANCH_OTHER: 0 0%

