Initialize SIGNATURE TABLE
ST_SET: 1
ST_WAY: 256
ST_TAG_BIT: 16
ST_TAG_MASK: ffff

Initialize PATTERN TABLE
PT_SET: 512
PT_WAY: 4
SIG_DELTA_BIT: 7
C_SIG_BIT: 4
C_DELTA_BIT: 4

Initialize PREFETCH FILTER
FILTER_SET: 1024
MANA initialize 
tds: 2 tdm: 4
size MANA SINGLE: 74 KB
size MANA NULTIPLE: 43 KB
size HOBPT: 5 KB
size SRQ: 0.14502 KB
size SABs: 0.290039 KB
size prefetch queue: 0.453125 KB
total: 122.888 KB

*** ChampSim Multicore Out-of-Order Simulator ***

Warmup Instructions: 50000000
Simulation Instructions: 50000000
Number of CPUs: 1
LLC sets: 2048
LLC ways: 16
Off-chip DRAM Size: 4096 MB Channels: 1 Width: 64-bit Data Rate: 3200 MT/s

CPU 0 runs ../dpc3_traces/server_004.champsimtrace.xz
CPU 0 L1D next line prefetcher
Heartbeat CPU 0 instructions: 10000002 cycles: 3226556 heartbeat IPC: 3.09928 cumulative IPC: 3.09928 (Simulation time: 0 hr 1 min 17 sec) 
Heartbeat CPU 0 instructions: 20000002 cycles: 6560088 heartbeat IPC: 2.99982 cumulative IPC: 3.04874 (Simulation time: 0 hr 2 min 38 sec) 
Heartbeat CPU 0 instructions: 30000000 cycles: 11677222 heartbeat IPC: 1.95422 cumulative IPC: 2.5691 (Simulation time: 0 hr 4 min 15 sec) 
Heartbeat CPU 0 instructions: 40000003 cycles: 15423415 heartbeat IPC: 2.66938 cumulative IPC: 2.59346 (Simulation time: 0 hr 5 min 45 sec) 
Heartbeat CPU 0 instructions: 50000003 cycles: 18649025 heartbeat IPC: 3.10019 cumulative IPC: 2.68111 (Simulation time: 0 hr 7 min 7 sec) 

Warmup complete CPU 0 instructions: 50000003 cycles: 18649025 (Simulation time: 0 hr 7 min 7 sec) 

Heartbeat CPU 0 instructions: 60000002 cycles: 27410405 heartbeat IPC: 1.14137 cumulative IPC: 1.14137 (Simulation time: 0 hr 8 min 28 sec) 
Heartbeat CPU 0 instructions: 70000000 cycles: 35680087 heartbeat IPC: 1.20924 cumulative IPC: 1.17432 (Simulation time: 0 hr 9 min 48 sec) 
Heartbeat CPU 0 instructions: 80000001 cycles: 56643150 heartbeat IPC: 0.47703 cumulative IPC: 0.789596 (Simulation time: 0 hr 11 min 59 sec) 
Heartbeat CPU 0 instructions: 90000003 cycles: 71567069 heartbeat IPC: 0.670065 cumulative IPC: 0.755886 (Simulation time: 0 hr 13 min 25 sec) 
Heartbeat CPU 0 instructions: 100000003 cycles: 80380920 heartbeat IPC: 1.13458 cumulative IPC: 0.809954 (Simulation time: 0 hr 14 min 36 sec) 
Finished CPU 0 instructions: 50000000 cycles: 61731895 cumulative IPC: 0.809954 (Simulation time: 0 hr 14 min 36 sec) 

ChampSim completed all CPUs

Region of Interest Statistics

CPU 0 cumulative IPC: 0.809954 instructions: 50000000 cycles: 61731895

SHEET
IPC : 0.809954

L1D TOTAL     ACCESS:   21703324  HIT:   17632071  MISS:    4071253
L1D LOAD      ACCESS:    8632386  HIT:    6613994  MISS:    2018392
L1D RFO       ACCESS:    4647850  HIT:    4540963  MISS:     106887
L1D PREFETCH  ACCESS:    8423088  HIT:    6477114  MISS:    1945974
L1D WRITEBACK ACCESS:          0  HIT:          0  MISS:          0
L1D PREFETCH  REQUESTED:    8668431  ISSUED:    8579168  USEFUL:     106273  USELESS:    1839692
L1D AVERAGE MISS LATENCY: 22.9784 cycles
L1D

SHEET
L1D-total_access : 21703324
L1D-total_hit : 17632071
L1D-total_miss : 4071253
L1D-load_access : 8632386
L1D-load_hit : 6613994
L1D-load_miss : 2018392
L1D-rfo_access : 4647850
L1D-rfo_hit : 4540963
L1D-rfo_miss : 106887
L1D-prefetch_access : 8423088
L1D-prefetch_hit : 6477114
L1D-prefetch_miss : 1945974
L1D-writeback_access : 0
L1D-writeback_hit : 0
L1D-writeback_miss : 0
L1D-prefetch_requested : 8668431
L1D-prefetch_issued : 8579168
L1D-prefetch_useful : 106273
L1D-prefetch_useless : 1839692
L1D-Avg_miss_latency : 22.9784
L1D-Morteza_fill_l2_prefetches : 0

L1I TOTAL     ACCESS:   15510689  HIT:   14090382  MISS:    1420307
L1I LOAD      ACCESS:   10678275  HIT:   10406446  MISS:     271829
L1I RFO       ACCESS:          0  HIT:          0  MISS:          0
L1I PREFETCH  ACCESS:    4832414  HIT:    3683936  MISS:    1148478
L1I WRITEBACK ACCESS:          0  HIT:          0  MISS:          0
L1I PREFETCH  REQUESTED:    5161953  ISSUED:    5132321  USEFUL:     817938  USELESS:     330479
L1I AVERAGE MISS LATENCY: 34.1778 cycles
L1I

SHEET
L1I-total_access : 15510689
L1I-total_hit : 14090382
L1I-total_miss : 1420307
L1I-load_access : 10678275
L1I-load_hit : 10406446
L1I-load_miss : 271829
L1I-rfo_access : 0
L1I-rfo_hit : 0
L1I-rfo_miss : 0
L1I-prefetch_access : 4832414
L1I-prefetch_hit : 3683936
L1I-prefetch_miss : 1148478
L1I-writeback_access : 0
L1I-writeback_hit : 0
L1I-writeback_miss : 0
L1I-prefetch_requested : 5161953
L1I-prefetch_issued : 5132321
L1I-prefetch_useful : 817938
L1I-prefetch_useless : 330479
L1I-Avg_miss_latency : 34.1778
L1I-Morteza_fill_l2_prefetches : 0

L2C TOTAL     ACCESS:    6981136  HIT:    5927053  MISS:    1054083
L2C LOAD      ACCESS:    2157022  HIT:    1887684  MISS:     269338
L2C RFO       ACCESS:     105640  HIT:      57247  MISS:      48393
L2C PREFETCH  ACCESS:    4473408  HIT:    3738764  MISS:     734644
L2C WRITEBACK ACCESS:     245066  HIT:     243358  MISS:       1708
L2C PREFETCH  REQUESTED:    5793405  ISSUED:    5792431  USEFUL:      40614  USELESS:     693606
L2C AVERAGE MISS LATENCY: 60.281 cycles
L2C

SHEET
L2C-total_access : 6981136
L2C-total_hit : 5927053
L2C-total_miss : 1054083
L2C-load_access : 2157022
L2C-load_hit : 1887684
L2C-load_miss : 269338
L2C-rfo_access : 105640
L2C-rfo_hit : 57247
L2C-rfo_miss : 48393
L2C-prefetch_access : 4473408
L2C-prefetch_hit : 3738764
L2C-prefetch_miss : 734644
L2C-writeback_access : 245066
L2C-writeback_hit : 243358
L2C-writeback_miss : 1708
L2C-prefetch_requested : 5793405
L2C-prefetch_issued : 5792431
L2C-prefetch_useful : 40614
L2C-prefetch_useless : 693606
L2C-Avg_miss_latency : 60.281
L2C-Morteza_fill_l2_prefetches : 1244257

LLC TOTAL     ACCESS:    2312910  HIT:    2078607  MISS:     234303
LLC LOAD      ACCESS:     268802  HIT:     225880  MISS:      42922
LLC RFO       ACCESS:      48384  HIT:      33160  MISS:      15224
LLC PREFETCH  ACCESS:    1855148  HIT:    1679487  MISS:     175661
LLC WRITEBACK ACCESS:     140576  HIT:     140080  MISS:        496
LLC PREFETCH  REQUESTED:          0  ISSUED:          0  USEFUL:      18719  USELESS:     156478
LLC AVERAGE MISS LATENCY: 176.591 cycles
LLC

SHEET
LLC-total_access : 2312910
LLC-total_hit : 2078607
LLC-total_miss : 234303
LLC-load_access : 268802
LLC-load_hit : 225880
LLC-load_miss : 42922
LLC-rfo_access : 48384
LLC-rfo_hit : 33160
LLC-rfo_miss : 15224
LLC-prefetch_access : 1855148
LLC-prefetch_hit : 1679487
LLC-prefetch_miss : 175661
LLC-writeback_access : 140576
LLC-writeback_hit : 140080
LLC-writeback_miss : 496
LLC-prefetch_requested : 0
LLC-prefetch_issued : 0
LLC-prefetch_useful : 18719
LLC-prefetch_useless : 156478
LLC-Avg_miss_latency : 176.591
LLC-Morteza_fill_l2_prefetches : 1078575

Major fault: 0 Minor fault: 7656



Printing Logs
statHeadFound: 457889
statHeadMissing: 777357
statStreamBufferHit: 14109160
statPrefetchEntryFound: 3129633
statCompactorMatch: 13483219
statStreamTrackerLookup: 15344406
statRecord: 1861187
statGetPointer: 1235246
statEnqueuePrefetch: 10086465
statPrefetchQueueIsFull: 127
StreamBufferHitRate: 0.919499
Regions' size: 8669
next_region_correct: 1513953
next_region_wrong: 338547
next_region_correct_prediction: 0.817249
statStreamBufferLookups: 1104797232
statL1iLookups: 80691720
statCompactorLookups: 552398616
morteza: start

SHEET
mana_table_access_counter : 2594462
mana_table_multiple_access_counter : 2872446
hobp_table_access_counter : 20486584
sab_access_counter : 17238793
srq_access_counter : 14065773

morteza: end
CPU 0 L1D next line prefetcher final stats

DRAM Statistics
 CHANNEL 0
 RQ ROW_BUFFER_HIT:      49132  ROW_BUFFER_MISS:     184649
 DBUS_CONGESTED:     103902
 WQ ROW_BUFFER_HIT:      10567  ROW_BUFFER_MISS:      44828  FULL:          0

 AVG_CONGESTED_CYCLE: 5

CPU 0 Branch Prediction Accuracy: 98.1603% MPKI: 3.89124 Average ROB Occupancy at Mispredict: 63.5446

Branch types
NOT_BRANCH: 39423755 78.8475%
BRANCH_DIRECT_JUMP: 551642 1.10328%
BRANCH_INDIRECT: 139368 0.278736%
BRANCH_CONDITIONAL: 7920858 15.8417%
BRANCH_DIRECT_CALL: 776072 1.55214%
BRANCH_INDIRECT_CALL: 194644 0.389288%
BRANCH_RETURN: 993311 1.98662%
BRANCH_OTHER: 0 0%

