Initialize SIGNATURE TABLE
ST_SET: 1
ST_WAY: 256
ST_TAG_BIT: 16
ST_TAG_MASK: ffff

Initialize PATTERN TABLE
PT_SET: 512
PT_WAY: 4
SIG_DELTA_BIT: 7
C_SIG_BIT: 4
C_DELTA_BIT: 4

Initialize PREFETCH FILTER
FILTER_SET: 1024
MANA initialize 
tds: 2 tdm: 4
size MANA SINGLE: 74 KB
size MANA NULTIPLE: 43 KB
size HOBPT: 5 KB
size SRQ: 0.14502 KB
size SABs: 0.290039 KB
size prefetch queue: 0.453125 KB
total: 122.888 KB

*** ChampSim Multicore Out-of-Order Simulator ***

Warmup Instructions: 50000000
Simulation Instructions: 50000000
Number of CPUs: 1
LLC sets: 2048
LLC ways: 16
Off-chip DRAM Size: 4096 MB Channels: 1 Width: 64-bit Data Rate: 3200 MT/s

CPU 0 runs ../dpc3_traces/server_009.champsimtrace.xz
CPU 0 L1D next line prefetcher
Heartbeat CPU 0 instructions: 10000003 cycles: 3197030 heartbeat IPC: 3.1279 cumulative IPC: 3.1279 (Simulation time: 0 hr 1 min 22 sec) 
Heartbeat CPU 0 instructions: 20000001 cycles: 6386441 heartbeat IPC: 3.13537 cumulative IPC: 3.13163 (Simulation time: 0 hr 2 min 40 sec) 
Heartbeat CPU 0 instructions: 30000002 cycles: 9590717 heartbeat IPC: 3.12083 cumulative IPC: 3.12803 (Simulation time: 0 hr 3 min 58 sec) 
Heartbeat CPU 0 instructions: 40000003 cycles: 12791360 heartbeat IPC: 3.12437 cumulative IPC: 3.12711 (Simulation time: 0 hr 5 min 13 sec) 
Heartbeat CPU 0 instructions: 50000000 cycles: 16048988 heartbeat IPC: 3.06972 cumulative IPC: 3.11546 (Simulation time: 0 hr 6 min 32 sec) 

Warmup complete CPU 0 instructions: 50000004 cycles: 16048989 (Simulation time: 0 hr 6 min 32 sec) 

Heartbeat CPU 0 instructions: 60000002 cycles: 31819671 heartbeat IPC: 0.634088 cumulative IPC: 0.634088 (Simulation time: 0 hr 8 min 12 sec) 
Heartbeat CPU 0 instructions: 70000003 cycles: 52883168 heartbeat IPC: 0.474755 cumulative IPC: 0.542974 (Simulation time: 0 hr 10 min 22 sec) 
Heartbeat CPU 0 instructions: 80000000 cycles: 60204267 heartbeat IPC: 1.36591 cumulative IPC: 0.67942 (Simulation time: 0 hr 11 min 30 sec) 
Heartbeat CPU 0 instructions: 90000001 cycles: 67662911 heartbeat IPC: 1.34073 cumulative IPC: 0.774985 (Simulation time: 0 hr 12 min 41 sec) 
Heartbeat CPU 0 instructions: 100000003 cycles: 75023555 heartbeat IPC: 1.35858 cumulative IPC: 0.847823 (Simulation time: 0 hr 13 min 54 sec) 
Finished CPU 0 instructions: 50000003 cycles: 58974567 cumulative IPC: 0.847823 (Simulation time: 0 hr 13 min 54 sec) 

ChampSim completed all CPUs

Region of Interest Statistics

CPU 0 cumulative IPC: 0.847823 instructions: 50000003 cycles: 58974567

SHEET
IPC : 0.847823

L1D TOTAL     ACCESS:   21707108  HIT:   17127273  MISS:    4579835
L1D LOAD      ACCESS:    8666859  HIT:    6387410  MISS:    2279449
L1D RFO       ACCESS:    4585053  HIT:    4480356  MISS:     104697
L1D PREFETCH  ACCESS:    8455196  HIT:    6259507  MISS:    2195689
L1D WRITEBACK ACCESS:          0  HIT:          0  MISS:          0
L1D PREFETCH  REQUESTED:    8700142  ISSUED:    8602841  USEFUL:     107040  USELESS:    2088648
L1D AVERAGE MISS LATENCY: 20.3526 cycles
L1D

SHEET
L1D-total_access : 21707108
L1D-total_hit : 17127273
L1D-total_miss : 4579835
L1D-load_access : 8666859
L1D-load_hit : 6387410
L1D-load_miss : 2279449
L1D-rfo_access : 4585053
L1D-rfo_hit : 4480356
L1D-rfo_miss : 104697
L1D-prefetch_access : 8455196
L1D-prefetch_hit : 6259507
L1D-prefetch_miss : 2195689
L1D-writeback_access : 0
L1D-writeback_hit : 0
L1D-writeback_miss : 0
L1D-prefetch_requested : 8700142
L1D-prefetch_issued : 8602841
L1D-prefetch_useful : 107040
L1D-prefetch_useless : 2088648
L1D-Avg_miss_latency : 20.3526
L1D-Morteza_fill_l2_prefetches : 0

L1I TOTAL     ACCESS:   15375797  HIT:   13989866  MISS:    1385931
L1I LOAD      ACCESS:   10725290  HIT:   10474933  MISS:     250357
L1I RFO       ACCESS:          0  HIT:          0  MISS:          0
L1I PREFETCH  ACCESS:    4650507  HIT:    3514933  MISS:    1135574
L1I WRITEBACK ACCESS:          0  HIT:          0  MISS:          0
L1I PREFETCH  REQUESTED:    4963650  ISSUED:    4921499  USEFUL:     832839  USELESS:     302684
L1I AVERAGE MISS LATENCY: 30.661 cycles
L1I

SHEET
L1I-total_access : 15375797
L1I-total_hit : 13989866
L1I-total_miss : 1385931
L1I-load_access : 10725290
L1I-load_hit : 10474933
L1I-load_miss : 250357
L1I-rfo_access : 0
L1I-rfo_hit : 0
L1I-rfo_miss : 0
L1I-prefetch_access : 4650507
L1I-prefetch_hit : 3514933
L1I-prefetch_miss : 1135574
L1I-writeback_access : 0
L1I-writeback_hit : 0
L1I-writeback_miss : 0
L1I-prefetch_requested : 4963650
L1I-prefetch_issued : 4921499
L1I-prefetch_useful : 832839
L1I-prefetch_useless : 302684
L1I-Avg_miss_latency : 30.661
L1I-Morteza_fill_l2_prefetches : 0

L2C TOTAL     ACCESS:    7538219  HIT:    6504611  MISS:    1033608
L2C LOAD      ACCESS:    2394725  HIT:    2147709  MISS:     247016
L2C RFO       ACCESS:     103613  HIT:      64045  MISS:      39568
L2C PREFETCH  ACCESS:    4782993  HIT:    4037445  MISS:     745548
L2C WRITEBACK ACCESS:     256888  HIT:     255412  MISS:       1476
L2C PREFETCH  REQUESTED:    7931679  ISSUED:    7929694  USEFUL:      36932  USELESS:     707584
L2C AVERAGE MISS LATENCY: 48.4232 cycles
L2C

SHEET
L2C-total_access : 7538219
L2C-total_hit : 6504611
L2C-total_miss : 1033608
L2C-load_access : 2394725
L2C-load_hit : 2147709
L2C-load_miss : 247016
L2C-rfo_access : 103613
L2C-rfo_hit : 64045
L2C-rfo_miss : 39568
L2C-prefetch_access : 4782993
L2C-prefetch_hit : 4037445
L2C-prefetch_miss : 745548
L2C-writeback_access : 256888
L2C-writeback_hit : 255412
L2C-writeback_miss : 1476
L2C-prefetch_requested : 7931679
L2C-prefetch_issued : 7929694
L2C-prefetch_useful : 36932
L2C-prefetch_useless : 707584
L2C-Avg_miss_latency : 48.4232
L2C-Morteza_fill_l2_prefetches : 1313676

LLC TOTAL     ACCESS:    2411532  HIT:    2272190  MISS:     139342
LLC LOAD      ACCESS:     246636  HIT:     225313  MISS:      21323
LLC RFO       ACCESS:      39555  HIT:      30492  MISS:       9063
LLC PREFETCH  ACCESS:    1989087  HIT:    1880474  MISS:     108613
LLC WRITEBACK ACCESS:     136254  HIT:     135911  MISS:        343
LLC PREFETCH  REQUESTED:          0  ISSUED:          0  USEFUL:      10866  USELESS:      94725
LLC AVERAGE MISS LATENCY: 173.173 cycles
LLC

SHEET
LLC-total_access : 2411532
LLC-total_hit : 2272190
LLC-total_miss : 139342
LLC-load_access : 246636
LLC-load_hit : 225313
LLC-load_miss : 21323
LLC-rfo_access : 39555
LLC-rfo_hit : 30492
LLC-rfo_miss : 9063
LLC-prefetch_access : 1989087
LLC-prefetch_hit : 1880474
LLC-prefetch_miss : 108613
LLC-writeback_access : 136254
LLC-writeback_hit : 135911
LLC-writeback_miss : 343
LLC-prefetch_requested : 0
LLC-prefetch_issued : 0
LLC-prefetch_useful : 10866
LLC-prefetch_useless : 94725
LLC-Avg_miss_latency : 173.173
LLC-Morteza_fill_l2_prefetches : 1239196

Major fault: 0 Minor fault: 6415



Printing Logs
statHeadFound: 386534
statHeadMissing: 613597
statStreamBufferHit: 12589442
statPrefetchEntryFound: 3012687
statCompactorMatch: 11662022
statStreamTrackerLookup: 13589573
statRecord: 1927551
statGetPointer: 1000131
statEnqueuePrefetch: 10360608
statPrefetchQueueIsFull: 183
StreamBufferHitRate: 0.926405
Regions' size: 4333
next_region_correct: 1603900
next_region_wrong: 319300
next_region_correct_prediction: 0.833975
statStreamBufferLookups: 978449256
statL1iLookups: 82884864
statCompactorLookups: 489224628
morteza: start

SHEET
mana_table_access_counter : 2656151
mana_table_multiple_access_counter : 2676714
hobp_table_access_counter : 18733960
sab_access_counter : 15602129
srq_access_counter : 13195681

morteza: end
CPU 0 L1D next line prefetcher final stats

DRAM Statistics
 CHANNEL 0
 RQ ROW_BUFFER_HIT:      26262  ROW_BUFFER_MISS:     112729
 DBUS_CONGESTED:      64708
 WQ ROW_BUFFER_HIT:       9156  ROW_BUFFER_MISS:      38838  FULL:          0

 AVG_CONGESTED_CYCLE: 5

CPU 0 Branch Prediction Accuracy: 99.4713% MPKI: 1.11484 Average ROB Occupancy at Mispredict: 109.325

Branch types
NOT_BRANCH: 39456615 78.9132%
BRANCH_DIRECT_JUMP: 445350 0.8907%
BRANCH_INDIRECT: 131149 0.262298%
BRANCH_CONDITIONAL: 8130196 16.2604%
BRANCH_DIRECT_CALL: 732485 1.46497%
BRANCH_INDIRECT_CALL: 172369 0.344738%
BRANCH_RETURN: 931558 1.86312%
BRANCH_OTHER: 0 0%

