Initialize SIGNATURE TABLE
ST_SET: 1
ST_WAY: 256
ST_TAG_BIT: 16
ST_TAG_MASK: ffff

Initialize PATTERN TABLE
PT_SET: 512
PT_WAY: 4
SIG_DELTA_BIT: 7
C_SIG_BIT: 4
C_DELTA_BIT: 4

Initialize PREFETCH FILTER
FILTER_SET: 1024
MANA initialize 
tds: 2 tdm: 4
size MANA SINGLE: 74 KB
size MANA NULTIPLE: 43 KB
size HOBPT: 5 KB
size SRQ: 0.14502 KB
size SABs: 0.290039 KB
size prefetch queue: 0.453125 KB
total: 122.888 KB

*** ChampSim Multicore Out-of-Order Simulator ***

Warmup Instructions: 50000000
Simulation Instructions: 50000000
Number of CPUs: 1
LLC sets: 2048
LLC ways: 16
Off-chip DRAM Size: 4096 MB Channels: 1 Width: 64-bit Data Rate: 3200 MT/s

CPU 0 runs ../dpc3_traces/server_015.champsimtrace.xz
CPU 0 L1D next line prefetcher
Heartbeat CPU 0 instructions: 10000002 cycles: 3519408 heartbeat IPC: 2.84139 cumulative IPC: 2.84139 (Simulation time: 0 hr 1 min 19 sec) 
Heartbeat CPU 0 instructions: 20000001 cycles: 7107104 heartbeat IPC: 2.7873 cumulative IPC: 2.81409 (Simulation time: 0 hr 2 min 39 sec) 
Heartbeat CPU 0 instructions: 30000001 cycles: 10646085 heartbeat IPC: 2.82567 cumulative IPC: 2.81794 (Simulation time: 0 hr 3 min 58 sec) 
Heartbeat CPU 0 instructions: 40000002 cycles: 14194126 heartbeat IPC: 2.81846 cumulative IPC: 2.81807 (Simulation time: 0 hr 5 min 19 sec) 
Heartbeat CPU 0 instructions: 50000002 cycles: 17742386 heartbeat IPC: 2.81828 cumulative IPC: 2.81811 (Simulation time: 0 hr 6 min 39 sec) 

Warmup complete CPU 0 instructions: 50000002 cycles: 17742386 (Simulation time: 0 hr 6 min 39 sec) 

Heartbeat CPU 0 instructions: 60000002 cycles: 24055847 heartbeat IPC: 1.58392 cumulative IPC: 1.58392 (Simulation time: 0 hr 8 min 3 sec) 
Heartbeat CPU 0 instructions: 70000003 cycles: 30378846 heartbeat IPC: 1.58153 cumulative IPC: 1.58272 (Simulation time: 0 hr 9 min 25 sec) 
Heartbeat CPU 0 instructions: 80000000 cycles: 36700309 heartbeat IPC: 1.58191 cumulative IPC: 1.58245 (Simulation time: 0 hr 10 min 44 sec) 
Heartbeat CPU 0 instructions: 90000000 cycles: 43025691 heartbeat IPC: 1.58093 cumulative IPC: 1.58207 (Simulation time: 0 hr 12 min 5 sec) 
Heartbeat CPU 0 instructions: 100000002 cycles: 49349599 heartbeat IPC: 1.5813 cumulative IPC: 1.58192 (Simulation time: 0 hr 13 min 26 sec) 
Finished CPU 0 instructions: 50000000 cycles: 31607213 cumulative IPC: 1.58192 (Simulation time: 0 hr 13 min 26 sec) 

ChampSim completed all CPUs

Region of Interest Statistics

CPU 0 cumulative IPC: 1.58192 instructions: 50000000 cycles: 31607213

SHEET
IPC : 1.58192

L1D TOTAL     ACCESS:   21828377  HIT:   21811605  MISS:      16772
L1D LOAD      ACCESS:    6689752  HIT:    6689218  MISS:        534
L1D RFO       ACCESS:    8562205  HIT:    8562109  MISS:         96
L1D PREFETCH  ACCESS:    6576420  HIT:    6560278  MISS:      16142
L1D WRITEBACK ACCESS:          0  HIT:          0  MISS:          0
L1D PREFETCH  REQUESTED:    6689814  ISSUED:    6580739  USEFUL:         84  USELESS:      16055
L1D AVERAGE MISS LATENCY: 16.6829 cycles
L1D

SHEET
L1D-total_access : 21828377
L1D-total_hit : 21811605
L1D-total_miss : 16772
L1D-load_access : 6689752
L1D-load_hit : 6689218
L1D-load_miss : 534
L1D-rfo_access : 8562205
L1D-rfo_hit : 8562109
L1D-rfo_miss : 96
L1D-prefetch_access : 6576420
L1D-prefetch_hit : 6560278
L1D-prefetch_miss : 16142
L1D-writeback_access : 0
L1D-writeback_hit : 0
L1D-writeback_miss : 0
L1D-prefetch_requested : 6689814
L1D-prefetch_issued : 6580739
L1D-prefetch_useful : 84
L1D-prefetch_useless : 16055
L1D-Avg_miss_latency : 16.6829
L1D-Morteza_fill_l2_prefetches : 0

L1I TOTAL     ACCESS:   16329555  HIT:   14377154  MISS:    1952401
L1I LOAD      ACCESS:    9659222  HIT:    9363518  MISS:     295704
L1I RFO       ACCESS:          0  HIT:          0  MISS:          0
L1I PREFETCH  ACCESS:    6670333  HIT:    5013636  MISS:    1656697
L1I WRITEBACK ACCESS:          0  HIT:          0  MISS:          0
L1I PREFETCH  REQUESTED:    7068859  ISSUED:    7068820  USEFUL:    1568415  USELESS:      88298
L1I AVERAGE MISS LATENCY: 12.8734 cycles
L1I

SHEET
L1I-total_access : 16329555
L1I-total_hit : 14377154
L1I-total_miss : 1952401
L1I-load_access : 9659222
L1I-load_hit : 9363518
L1I-load_miss : 295704
L1I-rfo_access : 0
L1I-rfo_hit : 0
L1I-rfo_miss : 0
L1I-prefetch_access : 6670333
L1I-prefetch_hit : 5013636
L1I-prefetch_miss : 1656697
L1I-writeback_access : 0
L1I-writeback_hit : 0
L1I-writeback_miss : 0
L1I-prefetch_requested : 7068859
L1I-prefetch_issued : 7068820
L1I-prefetch_useful : 1568415
L1I-prefetch_useless : 88298
L1I-Avg_miss_latency : 12.8734
L1I-Morteza_fill_l2_prefetches : 0

L2C TOTAL     ACCESS:    2526841  HIT:    2526538  MISS:        303
L2C LOAD      ACCESS:      84425  HIT:      84362  MISS:         63
L2C RFO       ACCESS:         94  HIT:         89  MISS:          5
L2C PREFETCH  ACCESS:    2441972  HIT:    2441739  MISS:        233
L2C WRITEBACK ACCESS:        350  HIT:        348  MISS:          2
L2C PREFETCH  REQUESTED:    1454698  ISSUED:    1454680  USEFUL:        102  USELESS:        111
L2C AVERAGE MISS LATENCY: 121.366 cycles
L2C

SHEET
L2C-total_access : 2526841
L2C-total_hit : 2526538
L2C-total_miss : 303
L2C-load_access : 84425
L2C-load_hit : 84362
L2C-load_miss : 63
L2C-rfo_access : 94
L2C-rfo_hit : 89
L2C-rfo_miss : 5
L2C-prefetch_access : 2441972
L2C-prefetch_hit : 2441739
L2C-prefetch_miss : 233
L2C-writeback_access : 350
L2C-writeback_hit : 348
L2C-writeback_miss : 2
L2C-prefetch_requested : 1454698
L2C-prefetch_issued : 1454680
L2C-prefetch_useful : 102
L2C-prefetch_useless : 111
L2C-Avg_miss_latency : 121.366
L2C-Morteza_fill_l2_prefetches : 562535

LLC TOTAL     ACCESS:     317428  HIT:     316803  MISS:        625
LLC LOAD      ACCESS:         63  HIT:         48  MISS:         15
LLC RFO       ACCESS:          5  HIT:          3  MISS:          2
LLC PREFETCH  ACCESS:     317246  HIT:     316641  MISS:        605
LLC WRITEBACK ACCESS:        114  HIT:        111  MISS:          3
LLC PREFETCH  REQUESTED:          0  ISSUED:          0  USEFUL:          9  USELESS:        106
LLC AVERAGE MISS LATENCY: 383.333 cycles
LLC

SHEET
LLC-total_access : 317428
LLC-total_hit : 316803
LLC-total_miss : 625
LLC-load_access : 63
LLC-load_hit : 48
LLC-load_miss : 15
LLC-rfo_access : 5
LLC-rfo_hit : 3
LLC-rfo_miss : 2
LLC-prefetch_access : 317246
LLC-prefetch_hit : 316641
LLC-prefetch_miss : 605
LLC-writeback_access : 114
LLC-writeback_hit : 111
LLC-writeback_miss : 3
LLC-prefetch_requested : 0
LLC-prefetch_issued : 0
LLC-prefetch_useful : 9
LLC-prefetch_useless : 106
LLC-Avg_miss_latency : 383.333
LLC-Morteza_fill_l2_prefetches : 316544

Major fault: 0 Minor fault: 1950



Printing Logs
statHeadFound: 506662
statHeadMissing: 416958
statStreamBufferHit: 13721711
statPrefetchEntryFound: 4789043
statCompactorMatch: 11446737
statStreamTrackerLookup: 14645331
statRecord: 3198594
statGetPointer: 923620
statEnqueuePrefetch: 14072089
statPrefetchQueueIsFull: 0
StreamBufferHitRate: 0.936934
Regions' size: 2520
next_region_correct: 2335104
next_region_wrong: 860952
next_region_correct_prediction: 0.73062
statStreamBufferLookups: 1054463832
statL1iLookups: 112576712
statCompactorLookups: 527231916
morteza: start

SHEET
mana_table_access_counter : 4802242
mana_table_multiple_access_counter : 3694667
hobp_table_access_counter : 24976701
sab_access_counter : 18510754
srq_access_counter : 17037449

morteza: end
CPU 0 L1D next line prefetcher final stats

DRAM Statistics
 CHANNEL 0
 RQ ROW_BUFFER_HIT:        121  ROW_BUFFER_MISS:        501
 DBUS_CONGESTED:        461
 WQ ROW_BUFFER_HIT:         74  ROW_BUFFER_MISS:        386  FULL:          0

 AVG_CONGESTED_CYCLE: 6

CPU 0 Branch Prediction Accuracy: 99.9085% MPKI: 0.15428 Average ROB Occupancy at Mispredict: 279.072

Branch types
NOT_BRANCH: 41573095 83.1462%
BRANCH_DIRECT_JUMP: 436254 0.872508%
BRANCH_INDIRECT: 0 0%
BRANCH_CONDITIONAL: 5395894 10.7918%
BRANCH_DIRECT_CALL: 1173390 2.34678%
BRANCH_INDIRECT_CALL: 123910 0.24782%
BRANCH_RETURN: 1297310 2.59462%
BRANCH_OTHER: 0 0%

