Initialize SIGNATURE TABLE
ST_SET: 1
ST_WAY: 256
ST_TAG_BIT: 16
ST_TAG_MASK: ffff

Initialize PATTERN TABLE
PT_SET: 512
PT_WAY: 4
SIG_DELTA_BIT: 7
C_SIG_BIT: 4
C_DELTA_BIT: 4

Initialize PREFETCH FILTER
FILTER_SET: 1024
MANA initialize 
tds: 2 tdm: 4
size MANA SINGLE: 74 KB
size MANA NULTIPLE: 43 KB
size HOBPT: 5 KB
size SRQ: 0.14502 KB
size SABs: 0.290039 KB
size prefetch queue: 0.453125 KB
total: 122.888 KB

*** ChampSim Multicore Out-of-Order Simulator ***

Warmup Instructions: 50000000
Simulation Instructions: 50000000
Number of CPUs: 1
LLC sets: 2048
LLC ways: 16
Off-chip DRAM Size: 4096 MB Channels: 1 Width: 64-bit Data Rate: 3200 MT/s

CPU 0 runs ../dpc3_traces/server_039.champsimtrace.xz
CPU 0 L1D next line prefetcher
Heartbeat CPU 0 instructions: 10000003 cycles: 3451645 heartbeat IPC: 2.89717 cumulative IPC: 2.89717 (Simulation time: 0 hr 1 min 30 sec) 
Heartbeat CPU 0 instructions: 20000002 cycles: 6896267 heartbeat IPC: 2.90308 cumulative IPC: 2.90012 (Simulation time: 0 hr 2 min 56 sec) 
Heartbeat CPU 0 instructions: 30000001 cycles: 10342727 heartbeat IPC: 2.90153 cumulative IPC: 2.90059 (Simulation time: 0 hr 4 min 19 sec) 
Heartbeat CPU 0 instructions: 40000002 cycles: 13784557 heartbeat IPC: 2.90543 cumulative IPC: 2.9018 (Simulation time: 0 hr 5 min 42 sec) 
Heartbeat CPU 0 instructions: 50000001 cycles: 17225758 heartbeat IPC: 2.90596 cumulative IPC: 2.90263 (Simulation time: 0 hr 7 min 8 sec) 

Warmup complete CPU 0 instructions: 50000001 cycles: 17225758 (Simulation time: 0 hr 7 min 8 sec) 

Heartbeat CPU 0 instructions: 60000000 cycles: 23238213 heartbeat IPC: 1.66321 cumulative IPC: 1.66321 (Simulation time: 0 hr 8 min 19 sec) 
Heartbeat CPU 0 instructions: 70000000 cycles: 29242289 heartbeat IPC: 1.66554 cumulative IPC: 1.66437 (Simulation time: 0 hr 9 min 33 sec) 
Heartbeat CPU 0 instructions: 80000000 cycles: 35272182 heartbeat IPC: 1.6584 cumulative IPC: 1.66238 (Simulation time: 0 hr 10 min 43 sec) 
Heartbeat CPU 0 instructions: 90000001 cycles: 41292208 heartbeat IPC: 1.66112 cumulative IPC: 1.66206 (Simulation time: 0 hr 11 min 51 sec) 
Heartbeat CPU 0 instructions: 100000002 cycles: 47318541 heartbeat IPC: 1.65938 cumulative IPC: 1.66153 (Simulation time: 0 hr 12 min 57 sec) 
Finished CPU 0 instructions: 50000001 cycles: 30092783 cumulative IPC: 1.66153 (Simulation time: 0 hr 12 min 57 sec) 

ChampSim completed all CPUs

Region of Interest Statistics

CPU 0 cumulative IPC: 1.66153 instructions: 50000001 cycles: 30092783

SHEET
IPC : 1.66153

L1D TOTAL     ACCESS:   20258821  HIT:   19764006  MISS:     494815
L1D LOAD      ACCESS:    6667194  HIT:    6445292  MISS:     221902
L1D RFO       ACCESS:    7095382  HIT:    7028542  MISS:      66840
L1D PREFETCH  ACCESS:    6496245  HIT:    6290172  MISS:     206073
L1D WRITEBACK ACCESS:          0  HIT:          0  MISS:          0
L1D PREFETCH  REQUESTED:    6684604  ISSUED:    6568525  USEFUL:      50044  USELESS:     156033
L1D AVERAGE MISS LATENCY: 15.0914 cycles
L1D

SHEET
L1D-total_access : 20258821
L1D-total_hit : 19764006
L1D-total_miss : 494815
L1D-load_access : 6667194
L1D-load_hit : 6445292
L1D-load_miss : 221902
L1D-rfo_access : 7095382
L1D-rfo_hit : 7028542
L1D-rfo_miss : 66840
L1D-prefetch_access : 6496245
L1D-prefetch_hit : 6290172
L1D-prefetch_miss : 206073
L1D-writeback_access : 0
L1D-writeback_hit : 0
L1D-writeback_miss : 0
L1D-prefetch_requested : 6684604
L1D-prefetch_issued : 6568525
L1D-prefetch_useful : 50044
L1D-prefetch_useless : 156033
L1D-Avg_miss_latency : 15.0914
L1D-Morteza_fill_l2_prefetches : 0

L1I TOTAL     ACCESS:   15255912  HIT:   10966799  MISS:    4289113
L1I LOAD      ACCESS:    9160928  HIT:    8532500  MISS:     628428
L1I RFO       ACCESS:          0  HIT:          0  MISS:          0
L1I PREFETCH  ACCESS:    6094984  HIT:    2434299  MISS:    3660685
L1I WRITEBACK ACCESS:          0  HIT:          0  MISS:          0
L1I PREFETCH  REQUESTED:    6715619  ISSUED:    6713498  USEFUL:    3479156  USELESS:     181529
L1I AVERAGE MISS LATENCY: 13.4896 cycles
L1I

SHEET
L1I-total_access : 15255912
L1I-total_hit : 10966799
L1I-total_miss : 4289113
L1I-load_access : 9160928
L1I-load_hit : 8532500
L1I-load_miss : 628428
L1I-rfo_access : 0
L1I-rfo_hit : 0
L1I-rfo_miss : 0
L1I-prefetch_access : 6094984
L1I-prefetch_hit : 2434299
L1I-prefetch_miss : 3660685
L1I-writeback_access : 0
L1I-writeback_hit : 0
L1I-writeback_miss : 0
L1I-prefetch_requested : 6715619
L1I-prefetch_issued : 6713498
L1I-prefetch_useful : 3479156
L1I-prefetch_useless : 181529
L1I-Avg_miss_latency : 13.4896
L1I-Morteza_fill_l2_prefetches : 0

L2C TOTAL     ACCESS:    6632060  HIT:    6632002  MISS:         58
L2C LOAD      ACCESS:     460105  HIT:     460103  MISS:          2
L2C RFO       ACCESS:      66764  HIT:      66764  MISS:          0
L2C PREFETCH  ACCESS:    5925132  HIT:    5925076  MISS:         56
L2C WRITEBACK ACCESS:     180059  HIT:     180059  MISS:          0
L2C PREFETCH  REQUESTED:    5667385  ISSUED:    5667230  USEFUL:          2  USELESS:          6
L2C AVERAGE MISS LATENCY: 47.2759 cycles
L2C

SHEET
L2C-total_access : 6632060
L2C-total_hit : 6632002
L2C-total_miss : 58
L2C-load_access : 460105
L2C-load_hit : 460103
L2C-load_miss : 2
L2C-rfo_access : 66764
L2C-rfo_hit : 66764
L2C-rfo_miss : 0
L2C-prefetch_access : 5925132
L2C-prefetch_hit : 5925076
L2C-prefetch_miss : 56
L2C-writeback_access : 180059
L2C-writeback_hit : 180059
L2C-writeback_miss : 0
L2C-prefetch_requested : 5667385
L2C-prefetch_issued : 5667230
L2C-prefetch_useful : 2
L2C-prefetch_useless : 6
L2C-Avg_miss_latency : 47.2759
L2C-Morteza_fill_l2_prefetches : 1697585

LLC TOTAL     ACCESS:     991907  HIT:     991566  MISS:        341
LLC LOAD      ACCESS:          2  HIT:          2  MISS:          0
LLC RFO       ACCESS:          0  HIT:          0  MISS:          0
LLC PREFETCH  ACCESS:     991905  HIT:     991564  MISS:        341
LLC WRITEBACK ACCESS:          0  HIT:          0  MISS:          0
LLC PREFETCH  REQUESTED:          0  ISSUED:          0  USEFUL:          2  USELESS:          0
LLC AVERAGE MISS LATENCY: 178 cycles
LLC

SHEET
LLC-total_access : 991907
LLC-total_hit : 991566
LLC-total_miss : 341
LLC-load_access : 2
LLC-load_hit : 2
LLC-load_miss : 0
LLC-rfo_access : 0
LLC-rfo_hit : 0
LLC-rfo_miss : 0
LLC-prefetch_access : 991905
LLC-prefetch_hit : 991564
LLC-prefetch_miss : 341
LLC-writeback_access : 0
LLC-writeback_hit : 0
LLC-writeback_miss : 0
LLC-prefetch_requested : 0
LLC-prefetch_issued : 0
LLC-prefetch_useful : 2
LLC-prefetch_useless : 0
LLC-Avg_miss_latency : 178
LLC-Morteza_fill_l2_prefetches : 991561

Major fault: 0 Minor fault: 405



Printing Logs
statHeadFound: 384253
statHeadMissing: 466013
statStreamBufferHit: 13368501
statPrefetchEntryFound: 4317564
statCompactorMatch: 11031263
statStreamTrackerLookup: 14218767
statRecord: 3187504
statGetPointer: 850266
statEnqueuePrefetch: 13481543
statPrefetchQueueIsFull: 0
StreamBufferHitRate: 0.940201
Regions' size: 745
next_region_correct: 2478464
next_region_wrong: 708277
next_region_correct_prediction: 0.777743
statStreamBufferLookups: 1023751224
statL1iLookups: 107852344
statCompactorLookups: 511875612
morteza: start

SHEET
mana_table_access_counter : 5018994
mana_table_multiple_access_counter : 2871236
hobp_table_access_counter : 23871190
sab_access_counter : 17686065
srq_access_counter : 16656503

morteza: end
CPU 0 L1D next line prefetcher final stats

DRAM Statistics
 CHANNEL 0
 RQ ROW_BUFFER_HIT:         56  ROW_BUFFER_MISS:        285
 DBUS_CONGESTED:         57
 WQ ROW_BUFFER_HIT:          0  ROW_BUFFER_MISS:          0  FULL:          0

 AVG_CONGESTED_CYCLE: 5

CPU 0 Branch Prediction Accuracy: 99.9091% MPKI: 0.1547 Average ROB Occupancy at Mispredict: 205.759

Branch types
NOT_BRANCH: 41494957 82.9899%
BRANCH_DIRECT_JUMP: 491308 0.982616%
BRANCH_INDIRECT: 0 0%
BRANCH_CONDITIONAL: 5595253 11.1905%
BRANCH_DIRECT_CALL: 1028408 2.05682%
BRANCH_INDIRECT_CALL: 180756 0.361512%
BRANCH_RETURN: 1209170 2.41834%
BRANCH_OTHER: 0 0%

