Initialize SIGNATURE TABLE
ST_SET: 1
ST_WAY: 256
ST_TAG_BIT: 16
ST_TAG_MASK: ffff

Initialize PATTERN TABLE
PT_SET: 512
PT_WAY: 4
SIG_DELTA_BIT: 7
C_SIG_BIT: 4
C_DELTA_BIT: 4

Initialize PREFETCH FILTER
FILTER_SET: 1024
MANA initialize 
tds: 2 tdm: 4
size MANA SINGLE: 74 KB
size MANA NULTIPLE: 43 KB
size HOBPT: 5 KB
size SRQ: 0.14502 KB
size SABs: 0.290039 KB
size prefetch queue: 0.453125 KB
total: 122.888 KB

*** ChampSim Multicore Out-of-Order Simulator ***

Warmup Instructions: 50000000
Simulation Instructions: 50000000
Number of CPUs: 1
LLC sets: 2048
LLC ways: 16
Off-chip DRAM Size: 4096 MB Channels: 1 Width: 64-bit Data Rate: 3200 MT/s

CPU 0 runs ../dpc3_traces/server_016.champsimtrace.xz
CPU 0 L1D next line prefetcher
Heartbeat CPU 0 instructions: 10000000 cycles: 3497634 heartbeat IPC: 2.85908 cumulative IPC: 2.85908 (Simulation time: 0 hr 1 min 30 sec) 
Heartbeat CPU 0 instructions: 20000000 cycles: 6995401 heartbeat IPC: 2.85897 cumulative IPC: 2.85902 (Simulation time: 0 hr 3 min 2 sec) 
Heartbeat CPU 0 instructions: 30000001 cycles: 10488189 heartbeat IPC: 2.86304 cumulative IPC: 2.86036 (Simulation time: 0 hr 4 min 29 sec) 
Heartbeat CPU 0 instructions: 40000000 cycles: 13786231 heartbeat IPC: 3.0321 cumulative IPC: 2.90145 (Simulation time: 0 hr 5 min 12 sec) 
Heartbeat CPU 0 instructions: 50000002 cycles: 17021696 heartbeat IPC: 3.09075 cumulative IPC: 2.93743 (Simulation time: 0 hr 5 min 44 sec) 

Warmup complete CPU 0 instructions: 50000002 cycles: 17021696 (Simulation time: 0 hr 5 min 44 sec) 

Heartbeat CPU 0 instructions: 60000001 cycles: 25023111 heartbeat IPC: 1.24978 cumulative IPC: 1.24978 (Simulation time: 0 hr 6 min 28 sec) 
Heartbeat CPU 0 instructions: 70000001 cycles: 32076186 heartbeat IPC: 1.41782 cumulative IPC: 1.32851 (Simulation time: 0 hr 7 min 59 sec) 
Heartbeat CPU 0 instructions: 80000000 cycles: 39253598 heartbeat IPC: 1.39326 cumulative IPC: 1.34941 (Simulation time: 0 hr 9 min 24 sec) 
Heartbeat CPU 0 instructions: 90000000 cycles: 46193746 heartbeat IPC: 1.44089 cumulative IPC: 1.37118 (Simulation time: 0 hr 10 min 47 sec) 
Heartbeat CPU 0 instructions: 100000000 cycles: 53294379 heartbeat IPC: 1.40833 cumulative IPC: 1.37845 (Simulation time: 0 hr 12 min 5 sec) 
Finished CPU 0 instructions: 50000002 cycles: 36272684 cumulative IPC: 1.37845 (Simulation time: 0 hr 12 min 5 sec) 

ChampSim completed all CPUs

Region of Interest Statistics

CPU 0 cumulative IPC: 1.37845 instructions: 50000002 cycles: 36272684

SHEET
IPC : 1.37845

L1D TOTAL     ACCESS:   18216850  HIT:   16949213  MISS:    1267637
L1D LOAD      ACCESS:    6648030  HIT:    6074878  MISS:     573152
L1D RFO       ACCESS:    5198970  HIT:    4977177  MISS:     221793
L1D PREFETCH  ACCESS:    6369850  HIT:    5897158  MISS:     472692
L1D WRITEBACK ACCESS:          0  HIT:          0  MISS:          0
L1D PREFETCH  REQUESTED:    6691454  ISSUED:    6590250  USEFUL:     113471  USELESS:     359239
L1D AVERAGE MISS LATENCY: 23.3612 cycles
L1D

SHEET
L1D-total_access : 18216850
L1D-total_hit : 16949213
L1D-total_miss : 1267637
L1D-load_access : 6648030
L1D-load_hit : 6074878
L1D-load_miss : 573152
L1D-rfo_access : 5198970
L1D-rfo_hit : 4977177
L1D-rfo_miss : 221793
L1D-prefetch_access : 6369850
L1D-prefetch_hit : 5897158
L1D-prefetch_miss : 472692
L1D-writeback_access : 0
L1D-writeback_hit : 0
L1D-writeback_miss : 0
L1D-prefetch_requested : 6691454
L1D-prefetch_issued : 6590250
L1D-prefetch_useful : 113471
L1D-prefetch_useless : 359239
L1D-Avg_miss_latency : 23.3612
L1D-Morteza_fill_l2_prefetches : 0

L1I TOTAL     ACCESS:   14371842  HIT:   11640258  MISS:    2731584
L1I LOAD      ACCESS:    9707137  HIT:    9159040  MISS:     548097
L1I RFO       ACCESS:          0  HIT:          0  MISS:          0
L1I PREFETCH  ACCESS:    4664705  HIT:    2481218  MISS:    2183487
L1I WRITEBACK ACCESS:          0  HIT:          0  MISS:          0
L1I PREFETCH  REQUESTED:    5218946  ISSUED:    5216992  USEFUL:    1587569  USELESS:     595875
L1I AVERAGE MISS LATENCY: 16.3211 cycles
L1I

SHEET
L1I-total_access : 14371842
L1I-total_hit : 11640258
L1I-total_miss : 2731584
L1I-load_access : 9707137
L1I-load_hit : 9159040
L1I-load_miss : 548097
L1I-rfo_access : 0
L1I-rfo_hit : 0
L1I-rfo_miss : 0
L1I-prefetch_access : 4664705
L1I-prefetch_hit : 2481218
L1I-prefetch_miss : 2183487
L1I-writeback_access : 0
L1I-writeback_hit : 0
L1I-writeback_miss : 0
L1I-prefetch_requested : 5218946
L1I-prefetch_issued : 5216992
L1I-prefetch_useful : 1587569
L1I-prefetch_useless : 595875
L1I-Avg_miss_latency : 16.3211
L1I-Morteza_fill_l2_prefetches : 0

L2C TOTAL     ACCESS:    5416206  HIT:    4866132  MISS:     550074
L2C LOAD      ACCESS:     821871  HIT:     697017  MISS:     124854
L2C RFO       ACCESS:     220428  HIT:     155042  MISS:      65386
L2C PREFETCH  ACCESS:    3945661  HIT:    3588766  MISS:     356895
L2C WRITEBACK ACCESS:     428246  HIT:     425307  MISS:       2939
L2C PREFETCH  REQUESTED:    4642294  ISSUED:    4635275  USEFUL:      20722  USELESS:     335644
L2C AVERAGE MISS LATENCY: 41.5213 cycles
L2C

SHEET
L2C-total_access : 5416206
L2C-total_hit : 4866132
L2C-total_miss : 550074
L2C-load_access : 821871
L2C-load_hit : 697017
L2C-load_miss : 124854
L2C-rfo_access : 220428
L2C-rfo_hit : 155042
L2C-rfo_miss : 65386
L2C-prefetch_access : 3945661
L2C-prefetch_hit : 3588766
L2C-prefetch_miss : 356895
L2C-writeback_access : 428246
L2C-writeback_hit : 425307
L2C-writeback_miss : 2939
L2C-prefetch_requested : 4642294
L2C-prefetch_issued : 4635275
L2C-prefetch_useful : 20722
L2C-prefetch_useless : 335644
L2C-Avg_miss_latency : 41.5213
L2C-Morteza_fill_l2_prefetches : 1017166

LLC TOTAL     ACCESS:    1887943  HIT:    1849464  MISS:      38479
LLC LOAD      ACCESS:     124755  HIT:     120152  MISS:       4603
LLC RFO       ACCESS:      65384  HIT:      51947  MISS:      13437
LLC PREFETCH  ACCESS:    1592436  HIT:    1572176  MISS:      20260
LLC WRITEBACK ACCESS:     105368  HIT:     105189  MISS:        179
LLC PREFETCH  REQUESTED:          0  ISSUED:          0  USEFUL:       1852  USELESS:      17947
LLC AVERAGE MISS LATENCY: 175.627 cycles
LLC

SHEET
LLC-total_access : 1887943
LLC-total_hit : 1849464
LLC-total_miss : 38479
LLC-load_access : 124755
LLC-load_hit : 120152
LLC-load_miss : 4603
LLC-rfo_access : 65384
LLC-rfo_hit : 51947
LLC-rfo_miss : 13437
LLC-prefetch_access : 1592436
LLC-prefetch_hit : 1572176
LLC-prefetch_miss : 20260
LLC-writeback_access : 105368
LLC-writeback_hit : 105189
LLC-writeback_miss : 179
LLC-prefetch_requested : 0
LLC-prefetch_issued : 0
LLC-prefetch_useful : 1852
LLC-prefetch_useless : 17947
LLC-Avg_miss_latency : 175.627
LLC-Morteza_fill_l2_prefetches : 1238380

Major fault: 0 Minor fault: 2425



Printing Logs
statHeadFound: 523791
statHeadMissing: 765213
statStreamBufferHit: 13475304
statPrefetchEntryFound: 3115114
statCompactorMatch: 13035252
statStreamTrackerLookup: 14764308
statRecord: 1729056
statGetPointer: 1289004
statEnqueuePrefetch: 9311398
statPrefetchQueueIsFull: 0
StreamBufferHitRate: 0.912695
Regions' size: 2228
next_region_correct: 1162011
next_region_wrong: 564799
next_region_correct_prediction: 0.672923
statStreamBufferLookups: 1063030176
statL1iLookups: 74491184
statCompactorLookups: 531515088
morteza: start

SHEET
mana_table_access_counter : 2921036
mana_table_multiple_access_counter : 2450132
hobp_table_access_counter : 20348705
sab_access_counter : 16590418
srq_access_counter : 13309584

morteza: end
CPU 0 L1D next line prefetcher final stats

DRAM Statistics
 CHANNEL 0
 RQ ROW_BUFFER_HIT:      11727  ROW_BUFFER_MISS:      26571
 DBUS_CONGESTED:      24138
 WQ ROW_BUFFER_HIT:       1589  ROW_BUFFER_MISS:      14662  FULL:          0

 AVG_CONGESTED_CYCLE: 6

CPU 0 Branch Prediction Accuracy: 99.7225% MPKI: 0.50376 Average ROB Occupancy at Mispredict: 113.829

Branch types
NOT_BRANCH: 40923882 81.8478%
BRANCH_DIRECT_JUMP: 487045 0.97409%
BRANCH_INDIRECT: 169158 0.338316%
BRANCH_CONDITIONAL: 6640823 13.2816%
BRANCH_DIRECT_CALL: 755586 1.51117%
BRANCH_INDIRECT_CALL: 133962 0.267924%
BRANCH_RETURN: 889566 1.77913%
BRANCH_OTHER: 0 0%

