Initialize SIGNATURE TABLE
ST_SET: 1
ST_WAY: 256
ST_TAG_BIT: 16
ST_TAG_MASK: ffff

Initialize PATTERN TABLE
PT_SET: 512
PT_WAY: 4
SIG_DELTA_BIT: 7
C_SIG_BIT: 4
C_DELTA_BIT: 4

Initialize PREFETCH FILTER
FILTER_SET: 1024
MANA initialize 
tds: 2 tdm: 4
size MANA SINGLE: 74 KB
size MANA NULTIPLE: 43 KB
size HOBPT: 5 KB
size SRQ: 0.14502 KB
size SABs: 0.290039 KB
size prefetch queue: 0.453125 KB
total: 122.888 KB

*** ChampSim Multicore Out-of-Order Simulator ***

Warmup Instructions: 50000000
Simulation Instructions: 50000000
Number of CPUs: 1
LLC sets: 2048
LLC ways: 16
Off-chip DRAM Size: 4096 MB Channels: 1 Width: 64-bit Data Rate: 3200 MT/s

CPU 0 runs ../dpc3_traces/server_019.champsimtrace.xz
CPU 0 L1D next line prefetcher
Heartbeat CPU 0 instructions: 10000002 cycles: 3623255 heartbeat IPC: 2.75995 cumulative IPC: 2.75995 (Simulation time: 0 hr 1 min 25 sec) 
Heartbeat CPU 0 instructions: 20000003 cycles: 7247872 heartbeat IPC: 2.75891 cumulative IPC: 2.75943 (Simulation time: 0 hr 2 min 49 sec) 
Heartbeat CPU 0 instructions: 30000002 cycles: 10871223 heartbeat IPC: 2.75988 cumulative IPC: 2.75958 (Simulation time: 0 hr 4 min 17 sec) 
Heartbeat CPU 0 instructions: 40000002 cycles: 14506546 heartbeat IPC: 2.75079 cumulative IPC: 2.75738 (Simulation time: 0 hr 5 min 40 sec) 
Heartbeat CPU 0 instructions: 50000001 cycles: 18130182 heartbeat IPC: 2.75966 cumulative IPC: 2.75783 (Simulation time: 0 hr 7 min 2 sec) 

Warmup complete CPU 0 instructions: 50000001 cycles: 18130182 (Simulation time: 0 hr 7 min 2 sec) 

Heartbeat CPU 0 instructions: 60000000 cycles: 38153767 heartbeat IPC: 0.499411 cumulative IPC: 0.499411 (Simulation time: 0 hr 9 min 4 sec) 
Heartbeat CPU 0 instructions: 70000002 cycles: 61857402 heartbeat IPC: 0.421876 cumulative IPC: 0.457381 (Simulation time: 0 hr 10 min 54 sec) 
Heartbeat CPU 0 instructions: 80000001 cycles: 82614697 heartbeat IPC: 0.481758 cumulative IPC: 0.465228 (Simulation time: 0 hr 12 min 49 sec) 
Heartbeat CPU 0 instructions: 90000002 cycles: 100530936 heartbeat IPC: 0.558153 cumulative IPC: 0.485432 (Simulation time: 0 hr 14 min 46 sec) 
Heartbeat CPU 0 instructions: 100000002 cycles: 118429266 heartbeat IPC: 0.558711 cumulative IPC: 0.498509 (Simulation time: 0 hr 16 min 46 sec) 
Finished CPU 0 instructions: 50000001 cycles: 100299084 cumulative IPC: 0.498509 (Simulation time: 0 hr 16 min 46 sec) 

ChampSim completed all CPUs

Region of Interest Statistics

CPU 0 cumulative IPC: 0.498509 instructions: 50000001 cycles: 100299084

SHEET
IPC : 0.498509

L1D TOTAL     ACCESS:   18348611  HIT:   16124971  MISS:    2223640
L1D LOAD      ACCESS:    6991923  HIT:    6234689  MISS:     757234
L1D RFO       ACCESS:    5530841  HIT:    4628869  MISS:     901972
L1D PREFETCH  ACCESS:    5825847  HIT:    5261413  MISS:     564434
L1D WRITEBACK ACCESS:          0  HIT:          0  MISS:          0
L1D PREFETCH  REQUESTED:    7028954  ISSUED:    6842792  USEFUL:     195239  USELESS:     369104
L1D AVERAGE MISS LATENCY: 184.887 cycles
L1D

SHEET
L1D-total_access : 18348611
L1D-total_hit : 16124971
L1D-total_miss : 2223640
L1D-load_access : 6991923
L1D-load_hit : 6234689
L1D-load_miss : 757234
L1D-rfo_access : 5530841
L1D-rfo_hit : 4628869
L1D-rfo_miss : 901972
L1D-prefetch_access : 5825847
L1D-prefetch_hit : 5261413
L1D-prefetch_miss : 564434
L1D-writeback_access : 0
L1D-writeback_hit : 0
L1D-writeback_miss : 0
L1D-prefetch_requested : 7028954
L1D-prefetch_issued : 6842792
L1D-prefetch_useful : 195239
L1D-prefetch_useless : 369104
L1D-Avg_miss_latency : 184.887
L1D-Morteza_fill_l2_prefetches : 0

L1I TOTAL     ACCESS:   13898993  HIT:   11716668  MISS:    2182325
L1I LOAD      ACCESS:    9792853  HIT:    9505880  MISS:     286973
L1I RFO       ACCESS:          0  HIT:          0  MISS:          0
L1I PREFETCH  ACCESS:    4106140  HIT:    2210788  MISS:    1895352
L1I WRITEBACK ACCESS:          0  HIT:          0  MISS:          0
L1I PREFETCH  REQUESTED:    4400563  ISSUED:    4400519  USEFUL:    1849686  USELESS:      45674
L1I AVERAGE MISS LATENCY: 17.258 cycles
L1I

SHEET
L1I-total_access : 13898993
L1I-total_hit : 11716668
L1I-total_miss : 2182325
L1I-load_access : 9792853
L1I-load_hit : 9505880
L1I-load_miss : 286973
L1I-rfo_access : 0
L1I-rfo_hit : 0
L1I-rfo_miss : 0
L1I-prefetch_access : 4106140
L1I-prefetch_hit : 2210788
L1I-prefetch_miss : 1895352
L1I-writeback_access : 0
L1I-writeback_hit : 0
L1I-writeback_miss : 0
L1I-prefetch_requested : 4400563
L1I-prefetch_issued : 4400519
L1I-prefetch_useful : 1849686
L1I-prefetch_useless : 45674
L1I-Avg_miss_latency : 17.258
L1I-Morteza_fill_l2_prefetches : 0

L2C TOTAL     ACCESS:    6430123  HIT:    4536925  MISS:    1893198
L2C LOAD      ACCESS:     647255  HIT:     308201  MISS:     339054
L2C RFO       ACCESS:     901586  HIT:      18388  MISS:     883198
L2C PREFETCH  ACCESS:    3706572  HIT:    3037578  MISS:     668994
L2C WRITEBACK ACCESS:    1174710  HIT:    1172758  MISS:       1952
L2C PREFETCH  REQUESTED:    3806652  ISSUED:    3804008  USEFUL:      28348  USELESS:     639269
L2C AVERAGE MISS LATENCY: 221.506 cycles
L2C

SHEET
L2C-total_access : 6430123
L2C-total_hit : 4536925
L2C-total_miss : 1893198
L2C-load_access : 647255
L2C-load_hit : 308201
L2C-load_miss : 339054
L2C-rfo_access : 901586
L2C-rfo_hit : 18388
L2C-rfo_miss : 883198
L2C-prefetch_access : 3706572
L2C-prefetch_hit : 3037578
L2C-prefetch_miss : 668994
L2C-writeback_access : 1174710
L2C-writeback_hit : 1172758
L2C-writeback_miss : 1952
L2C-prefetch_requested : 3806652
L2C-prefetch_issued : 3804008
L2C-prefetch_useful : 28348
L2C-prefetch_useless : 639269
L2C-Avg_miss_latency : 221.506
L2C-Morteza_fill_l2_prefetches : 842196

LLC TOTAL     ACCESS:    4129564  HIT:    2506402  MISS:    1623162
LLC LOAD      ACCESS:     338942  HIT:     171424  MISS:     167518
LLC RFO       ACCESS:     883196  HIT:     116382  MISS:     766814
LLC PREFETCH  ACCESS:    1796613  HIT:    1109841  MISS:     686772
LLC WRITEBACK ACCESS:    1110813  HIT:    1108755  MISS:       2058
LLC PREFETCH  REQUESTED:          0  ISSUED:          0  USEFUL:      51281  USELESS:     634499
LLC AVERAGE MISS LATENCY: 270.442 cycles
LLC

SHEET
LLC-total_access : 4129564
LLC-total_hit : 2506402
LLC-total_miss : 1623162
LLC-load_access : 338942
LLC-load_hit : 171424
LLC-load_miss : 167518
LLC-rfo_access : 883196
LLC-rfo_hit : 116382
LLC-rfo_miss : 766814
LLC-prefetch_access : 1796613
LLC-prefetch_hit : 1109841
LLC-prefetch_miss : 686772
LLC-writeback_access : 1110813
LLC-writeback_hit : 1108755
LLC-writeback_miss : 2058
LLC-prefetch_requested : 0
LLC-prefetch_issued : 0
LLC-prefetch_useful : 51281
LLC-prefetch_useless : 634499
LLC-Avg_miss_latency : 270.442
LLC-Morteza_fill_l2_prefetches : 817297

Major fault: 0 Minor fault: 25745



Printing Logs
statHeadFound: 240561
statHeadMissing: 1159779
statStreamBufferHit: 11822831
statPrefetchEntryFound: 2999814
statCompactorMatch: 10983479
statStreamTrackerLookup: 13223171
statRecord: 2239692
statGetPointer: 1400340
statEnqueuePrefetch: 9409959
statPrefetchQueueIsFull: 0
StreamBufferHitRate: 0.8941
Regions' size: 1397
next_region_correct: 1886846
next_region_wrong: 351431
next_region_correct_prediction: 0.84299
statStreamBufferLookups: 952068312
statL1iLookups: 75279672
statCompactorLookups: 476034156
morteza: start

SHEET
mana_table_access_counter : 3580929
mana_table_multiple_access_counter : 1900644
hobp_table_access_counter : 23163785
sab_access_counter : 14822645
srq_access_counter : 14397880

morteza: end
CPU 0 L1D next line prefetcher final stats

DRAM Statistics
 CHANNEL 0
 RQ ROW_BUFFER_HIT:     394203  ROW_BUFFER_MISS:    1226691
 DBUS_CONGESTED:    1593784
 WQ ROW_BUFFER_HIT:     270323  ROW_BUFFER_MISS:     662732  FULL:          0

 AVG_CONGESTED_CYCLE: 6

CPU 0 Branch Prediction Accuracy: 99.2186% MPKI: 1.32192 Average ROB Occupancy at Mispredict: 177.071

Branch types
NOT_BRANCH: 41540785 83.0816%
BRANCH_DIRECT_JUMP: 462384 0.924768%
BRANCH_INDIRECT: 45460 0.09092%
BRANCH_CONDITIONAL: 6209281 12.4186%
BRANCH_DIRECT_CALL: 666241 1.33248%
BRANCH_INDIRECT_CALL: 204728 0.409456%
BRANCH_RETURN: 870978 1.74196%
BRANCH_OTHER: 0 0%

