Initialize SIGNATURE TABLE
ST_SET: 1
ST_WAY: 256
ST_TAG_BIT: 16
ST_TAG_MASK: ffff

Initialize PATTERN TABLE
PT_SET: 512
PT_WAY: 4
SIG_DELTA_BIT: 7
C_SIG_BIT: 4
C_DELTA_BIT: 4

Initialize PREFETCH FILTER
FILTER_SET: 1024
MANA initialize 
tds: 2 tdm: 4
size MANA SINGLE: 74 KB
size MANA NULTIPLE: 43 KB
size HOBPT: 5 KB
size SRQ: 0.14502 KB
size SABs: 0.290039 KB
size prefetch queue: 0.453125 KB
total: 122.888 KB

*** ChampSim Multicore Out-of-Order Simulator ***

Warmup Instructions: 50000000
Simulation Instructions: 50000000
Number of CPUs: 1
LLC sets: 2048
LLC ways: 16
Off-chip DRAM Size: 4096 MB Channels: 1 Width: 64-bit Data Rate: 3200 MT/s

CPU 0 runs ../dpc3_traces/server_031.champsimtrace.xz
CPU 0 L1D next line prefetcher
Heartbeat CPU 0 instructions: 10000003 cycles: 3522505 heartbeat IPC: 2.83889 cumulative IPC: 2.83889 (Simulation time: 0 hr 1 min 28 sec) 
Heartbeat CPU 0 instructions: 20000002 cycles: 7043786 heartbeat IPC: 2.83988 cumulative IPC: 2.83938 (Simulation time: 0 hr 2 min 58 sec) 
Heartbeat CPU 0 instructions: 30000002 cycles: 10565210 heartbeat IPC: 2.83976 cumulative IPC: 2.83951 (Simulation time: 0 hr 4 min 31 sec) 
Heartbeat CPU 0 instructions: 40000003 cycles: 14082755 heartbeat IPC: 2.84289 cumulative IPC: 2.84035 (Simulation time: 0 hr 5 min 57 sec) 
Heartbeat CPU 0 instructions: 50000001 cycles: 17602753 heartbeat IPC: 2.84091 cumulative IPC: 2.84046 (Simulation time: 0 hr 7 min 28 sec) 

Warmup complete CPU 0 instructions: 50000001 cycles: 17602753 (Simulation time: 0 hr 7 min 28 sec) 

Heartbeat CPU 0 instructions: 60000001 cycles: 25373526 heartbeat IPC: 1.28687 cumulative IPC: 1.28687 (Simulation time: 0 hr 9 min 0 sec) 
Heartbeat CPU 0 instructions: 70000002 cycles: 33207360 heartbeat IPC: 1.27651 cumulative IPC: 1.28167 (Simulation time: 0 hr 10 min 27 sec) 
*** Reached end of trace for Core: 0 Repeating trace: ../dpc3_traces/server_031.champsimtrace.xz
Heartbeat CPU 0 instructions: 80000000 cycles: 40854790 heartbeat IPC: 1.30763 cumulative IPC: 1.29021 (Simulation time: 0 hr 11 min 52 sec) 
Heartbeat CPU 0 instructions: 90000003 cycles: 48546236 heartbeat IPC: 1.30015 cumulative IPC: 1.29268 (Simulation time: 0 hr 13 min 18 sec) 
Heartbeat CPU 0 instructions: 100000000 cycles: 56198894 heartbeat IPC: 1.30674 cumulative IPC: 1.29547 (Simulation time: 0 hr 14 min 43 sec) 
Finished CPU 0 instructions: 50000000 cycles: 38596143 cumulative IPC: 1.29547 (Simulation time: 0 hr 14 min 43 sec) 

ChampSim completed all CPUs

Region of Interest Statistics

CPU 0 cumulative IPC: 1.29547 instructions: 50000000 cycles: 38596143

SHEET
IPC : 1.29547

L1D TOTAL     ACCESS:   19777300  HIT:   17872848  MISS:    1904452
L1D LOAD      ACCESS:    6892081  HIT:    6020681  MISS:     871400
L1D RFO       ACCESS:    6330126  HIT:    6038128  MISS:     291998
L1D PREFETCH  ACCESS:    6555093  HIT:    5814039  MISS:     741054
L1D WRITEBACK ACCESS:          0  HIT:          0  MISS:          0
L1D PREFETCH  REQUESTED:    6955589  ISSUED:    6850101  USEFUL:     175600  USELESS:     565459
L1D AVERAGE MISS LATENCY: 22.7835 cycles
L1D

SHEET
L1D-total_access : 19777300
L1D-total_hit : 17872848
L1D-total_miss : 1904452
L1D-load_access : 6892081
L1D-load_hit : 6020681
L1D-load_miss : 871400
L1D-rfo_access : 6330126
L1D-rfo_hit : 6038128
L1D-rfo_miss : 291998
L1D-prefetch_access : 6555093
L1D-prefetch_hit : 5814039
L1D-prefetch_miss : 741054
L1D-writeback_access : 0
L1D-writeback_hit : 0
L1D-writeback_miss : 0
L1D-prefetch_requested : 6955589
L1D-prefetch_issued : 6850101
L1D-prefetch_useful : 175600
L1D-prefetch_useless : 565459
L1D-Avg_miss_latency : 22.7835
L1D-Morteza_fill_l2_prefetches : 0

L1I TOTAL     ACCESS:   15160674  HIT:   11520916  MISS:    3639758
L1I LOAD      ACCESS:    9473073  HIT:    8757789  MISS:     715284
L1I RFO       ACCESS:          0  HIT:          0  MISS:          0
L1I PREFETCH  ACCESS:    5687601  HIT:    2763127  MISS:    2924474
L1I WRITEBACK ACCESS:          0  HIT:          0  MISS:          0
L1I PREFETCH  REQUESTED:    6394168  ISSUED:    6393771  USEFUL:    2330734  USELESS:     593733
L1I AVERAGE MISS LATENCY: 15.7333 cycles
L1I

SHEET
L1I-total_access : 15160674
L1I-total_hit : 11520916
L1I-total_miss : 3639758
L1I-load_access : 9473073
L1I-load_hit : 8757789
L1I-load_miss : 715284
L1I-rfo_access : 0
L1I-rfo_hit : 0
L1I-rfo_miss : 0
L1I-prefetch_access : 5687601
L1I-prefetch_hit : 2763127
L1I-prefetch_miss : 2924474
L1I-writeback_access : 0
L1I-writeback_hit : 0
L1I-writeback_miss : 0
L1I-prefetch_requested : 6394168
L1I-prefetch_issued : 6393771
L1I-prefetch_useful : 2330734
L1I-prefetch_useless : 593733
L1I-Avg_miss_latency : 15.7333
L1I-Morteza_fill_l2_prefetches : 0

L2C TOTAL     ACCESS:    7822257  HIT:    7208262  MISS:     613995
L2C LOAD      ACCESS:    1174150  HIT:    1029119  MISS:     145031
L2C RFO       ACCESS:     289657  HIT:     237517  MISS:      52140
L2C PREFETCH  ACCESS:    5741700  HIT:    5328528  MISS:     413172
L2C WRITEBACK ACCESS:     616750  HIT:     613098  MISS:       3652
L2C PREFETCH  REQUESTED:    7346391  ISSUED:    7305507  USEFUL:      14488  USELESS:     397967
L2C AVERAGE MISS LATENCY: 45.2834 cycles
L2C

SHEET
L2C-total_access : 7822257
L2C-total_hit : 7208262
L2C-total_miss : 613995
L2C-load_access : 1174150
L2C-load_hit : 1029119
L2C-load_miss : 145031
L2C-rfo_access : 289657
L2C-rfo_hit : 237517
L2C-rfo_miss : 52140
L2C-prefetch_access : 5741700
L2C-prefetch_hit : 5328528
L2C-prefetch_miss : 413172
L2C-writeback_access : 616750
L2C-writeback_hit : 613098
L2C-writeback_miss : 3652
L2C-prefetch_requested : 7346391
L2C-prefetch_issued : 7305507
L2C-prefetch_useful : 14488
L2C-prefetch_useless : 397967
L2C-Avg_miss_latency : 45.2834
L2C-Morteza_fill_l2_prefetches : 1696601

LLC TOTAL     ACCESS:    3179501  HIT:    3082850  MISS:      96651
LLC LOAD      ACCESS:     144993  HIT:     125872  MISS:      19121
LLC RFO       ACCESS:      52141  HIT:      47861  MISS:       4280
LLC PREFETCH  ACCESS:    2885319  HIT:    2812755  MISS:      72564
LLC WRITEBACK ACCESS:      97048  HIT:      96362  MISS:        686
LLC PREFETCH  REQUESTED:          0  ISSUED:          0  USEFUL:       3331  USELESS:      67444
LLC AVERAGE MISS LATENCY: 164.219 cycles
LLC

SHEET
LLC-total_access : 3179501
LLC-total_hit : 3082850
LLC-total_miss : 96651
LLC-load_access : 144993
LLC-load_hit : 125872
LLC-load_miss : 19121
LLC-rfo_access : 52141
LLC-rfo_hit : 47861
LLC-rfo_miss : 4280
LLC-prefetch_access : 2885319
LLC-prefetch_hit : 2812755
LLC-prefetch_miss : 72564
LLC-writeback_access : 97048
LLC-writeback_hit : 96362
LLC-writeback_miss : 686
LLC-prefetch_requested : 0
LLC-prefetch_issued : 0
LLC-prefetch_useful : 3331
LLC-prefetch_useless : 67444
LLC-Avg_miss_latency : 164.219
LLC-Morteza_fill_l2_prefetches : 2436261

Major fault: 0 Minor fault: 6105



Printing Logs
statHeadFound: 600687
statHeadMissing: 608535
statStreamBufferHit: 13175100
statPrefetchEntryFound: 4340736
statCompactorMatch: 11621102
statStreamTrackerLookup: 14384322
statRecord: 2763220
statGetPointer: 1209222
statEnqueuePrefetch: 12751174
statPrefetchQueueIsFull: 0
StreamBufferHitRate: 0.915935
Regions' size: 2047
next_region_correct: 1947799
next_region_wrong: 813356
next_region_correct_prediction: 0.705429
statStreamBufferLookups: 1035671184
statL1iLookups: 102009392
statCompactorLookups: 517835592
morteza: start

SHEET
mana_table_access_counter : 4452530
mana_table_multiple_access_counter : 3254852
hobp_table_access_counter : 25071947
sab_access_counter : 17515836
srq_access_counter : 15831853

morteza: end
CPU 0 L1D next line prefetcher final stats

DRAM Statistics
 CHANNEL 0
 RQ ROW_BUFFER_HIT:      25924  ROW_BUFFER_MISS:      70030
 DBUS_CONGESTED:      45134
 WQ ROW_BUFFER_HIT:        808  ROW_BUFFER_MISS:       5460  FULL:          0

 AVG_CONGESTED_CYCLE: 5

CPU 0 Branch Prediction Accuracy: 99.6894% MPKI: 0.58048 Average ROB Occupancy at Mispredict: 135.071

Branch types
NOT_BRANCH: 40655621 81.3112%
BRANCH_DIRECT_JUMP: 546484 1.09297%
BRANCH_INDIRECT: 172433 0.344866%
BRANCH_CONDITIONAL: 6207578 12.4152%
BRANCH_DIRECT_CALL: 1018498 2.037%
BRANCH_INDIRECT_CALL: 190373 0.380746%
BRANCH_RETURN: 1208857 2.41771%
BRANCH_OTHER: 0 0%

