Initialize SIGNATURE TABLE
ST_SET: 1
ST_WAY: 256
ST_TAG_BIT: 16
ST_TAG_MASK: ffff

Initialize PATTERN TABLE
PT_SET: 512
PT_WAY: 4
SIG_DELTA_BIT: 7
C_SIG_BIT: 4
C_DELTA_BIT: 4

Initialize PREFETCH FILTER
FILTER_SET: 1024
MANA initialize 
tds: 2 tdm: 4
size MANA SINGLE: 74 KB
size MANA NULTIPLE: 43 KB
size HOBPT: 5 KB
size SRQ: 0.14502 KB
size SABs: 0.290039 KB
size prefetch queue: 0.453125 KB
total: 122.888 KB

*** ChampSim Multicore Out-of-Order Simulator ***

Warmup Instructions: 50000000
Simulation Instructions: 50000000
Number of CPUs: 1
LLC sets: 2048
LLC ways: 16
Off-chip DRAM Size: 4096 MB Channels: 1 Width: 64-bit Data Rate: 3200 MT/s

CPU 0 runs ../dpc3_traces/server_034.champsimtrace.xz
CPU 0 L1D next line prefetcher
Heartbeat CPU 0 instructions: 10000000 cycles: 3330719 heartbeat IPC: 3.00235 cumulative IPC: 3.00235 (Simulation time: 0 hr 1 min 20 sec) 
Heartbeat CPU 0 instructions: 20000002 cycles: 6654096 heartbeat IPC: 3.00899 cumulative IPC: 3.00567 (Simulation time: 0 hr 2 min 42 sec) 
Heartbeat CPU 0 instructions: 30000003 cycles: 9985830 heartbeat IPC: 3.00144 cumulative IPC: 3.00426 (Simulation time: 0 hr 4 min 0 sec) 
Heartbeat CPU 0 instructions: 40000001 cycles: 13315708 heartbeat IPC: 3.00311 cumulative IPC: 3.00397 (Simulation time: 0 hr 5 min 21 sec) 
Heartbeat CPU 0 instructions: 50000000 cycles: 16644771 heartbeat IPC: 3.00385 cumulative IPC: 3.00395 (Simulation time: 0 hr 6 min 49 sec) 

Warmup complete CPU 0 instructions: 50000002 cycles: 16644772 (Simulation time: 0 hr 6 min 49 sec) 

Heartbeat CPU 0 instructions: 60000002 cycles: 22714896 heartbeat IPC: 1.64741 cumulative IPC: 1.64741 (Simulation time: 0 hr 8 min 9 sec) 
Heartbeat CPU 0 instructions: 70000003 cycles: 29162396 heartbeat IPC: 1.55099 cumulative IPC: 1.59775 (Simulation time: 0 hr 9 min 30 sec) 
Heartbeat CPU 0 instructions: 80000002 cycles: 35298155 heartbeat IPC: 1.62979 cumulative IPC: 1.60829 (Simulation time: 0 hr 10 min 52 sec) 
Heartbeat CPU 0 instructions: 90000002 cycles: 41430736 heartbeat IPC: 1.63063 cumulative IPC: 1.61382 (Simulation time: 0 hr 12 min 15 sec) 
Heartbeat CPU 0 instructions: 100000002 cycles: 47548997 heartbeat IPC: 1.63445 cumulative IPC: 1.6179 (Simulation time: 0 hr 13 min 33 sec) 
Finished CPU 0 instructions: 50000000 cycles: 30904225 cumulative IPC: 1.6179 (Simulation time: 0 hr 13 min 33 sec) 

ChampSim completed all CPUs

Region of Interest Statistics

CPU 0 cumulative IPC: 1.6179 instructions: 50000000 cycles: 30904225

SHEET
IPC : 1.6179

L1D TOTAL     ACCESS:   18426342  HIT:   17002093  MISS:    1424249
L1D LOAD      ACCESS:    6219927  HIT:    5565083  MISS:     654844
L1D RFO       ACCESS:    6165543  HIT:    6022514  MISS:     143029
L1D PREFETCH  ACCESS:    6040872  HIT:    5414496  MISS:     626376
L1D WRITEBACK ACCESS:          0  HIT:          0  MISS:          0
L1D PREFETCH  REQUESTED:    6254057  ISSUED:    6168943  USEFUL:     141777  USELESS:     484568
L1D AVERAGE MISS LATENCY: 17.7427 cycles
L1D

SHEET
L1D-total_access : 18426342
L1D-total_hit : 17002093
L1D-total_miss : 1424249
L1D-load_access : 6219927
L1D-load_hit : 5565083
L1D-load_miss : 654844
L1D-rfo_access : 6165543
L1D-rfo_hit : 6022514
L1D-rfo_miss : 143029
L1D-prefetch_access : 6040872
L1D-prefetch_hit : 5414496
L1D-prefetch_miss : 626376
L1D-writeback_access : 0
L1D-writeback_hit : 0
L1D-writeback_miss : 0
L1D-prefetch_requested : 6254057
L1D-prefetch_issued : 6168943
L1D-prefetch_useful : 141777
L1D-prefetch_useless : 484568
L1D-Avg_miss_latency : 17.7427
L1D-Morteza_fill_l2_prefetches : 0

L1I TOTAL     ACCESS:   15234428  HIT:   11507514  MISS:    3726914
L1I LOAD      ACCESS:    9488373  HIT:    8868827  MISS:     619546
L1I RFO       ACCESS:          0  HIT:          0  MISS:          0
L1I PREFETCH  ACCESS:    5746055  HIT:    2638687  MISS:    3107368
L1I WRITEBACK ACCESS:          0  HIT:          0  MISS:          0
L1I PREFETCH  REQUESTED:    6369312  ISSUED:    6369298  USEFUL:    2716105  USELESS:     391248
L1I AVERAGE MISS LATENCY: 13.9492 cycles
L1I

SHEET
L1I-total_access : 15234428
L1I-total_hit : 11507514
L1I-total_miss : 3726914
L1I-load_access : 9488373
L1I-load_hit : 8868827
L1I-load_miss : 619546
L1I-rfo_access : 0
L1I-rfo_hit : 0
L1I-rfo_miss : 0
L1I-prefetch_access : 5746055
L1I-prefetch_hit : 2638687
L1I-prefetch_miss : 3107368
L1I-writeback_access : 0
L1I-writeback_hit : 0
L1I-writeback_miss : 0
L1I-prefetch_requested : 6369312
L1I-prefetch_issued : 6369298
L1I-prefetch_useful : 2716105
L1I-prefetch_useless : 391248
L1I-Avg_miss_latency : 13.9492
L1I-Morteza_fill_l2_prefetches : 0

L2C TOTAL     ACCESS:    6951855  HIT:    6818794  MISS:     133061
L2C LOAD      ACCESS:     939989  HIT:     896306  MISS:      43683
L2C RFO       ACCESS:     141248  HIT:     132370  MISS:       8878
L2C PREFETCH  ACCESS:    5519836  HIT:    5440568  MISS:      79268
L2C WRITEBACK ACCESS:     350782  HIT:     349550  MISS:       1232
L2C PREFETCH  REQUESTED:    6309431  ISSUED:    6301315  USEFUL:       3669  USELESS:      74706
L2C AVERAGE MISS LATENCY: 39.8889 cycles
L2C

SHEET
L2C-total_access : 6951855
L2C-total_hit : 6818794
L2C-total_miss : 133061
L2C-load_access : 939989
L2C-load_hit : 896306
L2C-load_miss : 43683
L2C-rfo_access : 141248
L2C-rfo_hit : 132370
L2C-rfo_miss : 8878
L2C-prefetch_access : 5519836
L2C-prefetch_hit : 5440568
L2C-prefetch_miss : 79268
L2C-writeback_access : 350782
L2C-writeback_hit : 349550
L2C-writeback_miss : 1232
L2C-prefetch_requested : 6309431
L2C-prefetch_issued : 6301315
L2C-prefetch_useful : 3669
L2C-prefetch_useless : 74706
L2C-Avg_miss_latency : 39.8889
L2C-Morteza_fill_l2_prefetches : 1466929

LLC TOTAL     ACCESS:    1788688  HIT:    1774515  MISS:      14173
LLC LOAD      ACCESS:      43595  HIT:      40793  MISS:       2802
LLC RFO       ACCESS:       8877  HIT:       8614  MISS:        263
LLC PREFETCH  ACCESS:    1694503  HIT:    1683470  MISS:      11033
LLC WRITEBACK ACCESS:      41713  HIT:      41638  MISS:         75
LLC PREFETCH  REQUESTED:          0  ISSUED:          0  USEFUL:       2977  USELESS:       5335
LLC AVERAGE MISS LATENCY: 155.629 cycles
LLC

SHEET
LLC-total_access : 1788688
LLC-total_hit : 1774515
LLC-total_miss : 14173
LLC-load_access : 43595
LLC-load_hit : 40793
LLC-load_miss : 2802
LLC-rfo_access : 8877
LLC-rfo_hit : 8614
LLC-rfo_miss : 263
LLC-prefetch_access : 1694503
LLC-prefetch_hit : 1683470
LLC-prefetch_miss : 11033
LLC-writeback_access : 41713
LLC-writeback_hit : 41638
LLC-writeback_miss : 75
LLC-prefetch_requested : 0
LLC-prefetch_issued : 0
LLC-prefetch_useful : 2977
LLC-prefetch_useless : 5335
LLC-Avg_miss_latency : 155.629
LLC-Morteza_fill_l2_prefetches : 1612374

Major fault: 0 Minor fault: 1230



Printing Logs
statHeadFound: 448891
statHeadMissing: 438836
statStreamBufferHit: 14258436
statPrefetchEntryFound: 4252694
statCompactorMatch: 12087837
statStreamTrackerLookup: 15146163
statRecord: 3058326
statGetPointer: 887727
statEnqueuePrefetch: 12851843
statPrefetchQueueIsFull: 0
StreamBufferHitRate: 0.941389
Regions' size: 1352
next_region_correct: 2353086
next_region_wrong: 703870
next_region_correct_prediction: 0.769748
statStreamBufferLookups: 1090523736
statL1iLookups: 102814744
statCompactorLookups: 545261868
morteza: start

SHEET
mana_table_access_counter : 5176664
mana_table_multiple_access_counter : 2584945
hobp_table_access_counter : 23590617
sab_access_counter : 18511130
srq_access_counter : 16701385

morteza: end
CPU 0 L1D next line prefetcher final stats

DRAM Statistics
 CHANNEL 0
 RQ ROW_BUFFER_HIT:       3709  ROW_BUFFER_MISS:      10383
 DBUS_CONGESTED:       6183
 WQ ROW_BUFFER_HIT:       1012  ROW_BUFFER_MISS:       2987  FULL:          0

 AVG_CONGESTED_CYCLE: 5

CPU 0 Branch Prediction Accuracy: 99.926% MPKI: 0.14472 Average ROB Occupancy at Mispredict: 207.009

Branch types
NOT_BRANCH: 40220947 80.4419%
BRANCH_DIRECT_JUMP: 771319 1.54264%
BRANCH_INDIRECT: 108663 0.217326%
BRANCH_CONDITIONAL: 6375026 12.7501%
BRANCH_DIRECT_CALL: 1049635 2.09927%
BRANCH_INDIRECT_CALL: 212281 0.424562%
BRANCH_RETURN: 1261922 2.52384%
BRANCH_OTHER: 0 0%

