Initialize SIGNATURE TABLE
ST_SET: 1
ST_WAY: 256
ST_TAG_BIT: 16
ST_TAG_MASK: ffff

Initialize PATTERN TABLE
PT_SET: 512
PT_WAY: 4
SIG_DELTA_BIT: 7
C_SIG_BIT: 4
C_DELTA_BIT: 4

Initialize PREFETCH FILTER
FILTER_SET: 1024
MANA initialize 
tds: 2 tdm: 4
size MANA SINGLE: 74 KB
size MANA NULTIPLE: 43 KB
size HOBPT: 5 KB
size SRQ: 0.14502 KB
size SABs: 0.290039 KB
size prefetch queue: 0.453125 KB
total: 122.888 KB

*** ChampSim Multicore Out-of-Order Simulator ***

Warmup Instructions: 50000000
Simulation Instructions: 50000000
Number of CPUs: 1
LLC sets: 2048
LLC ways: 16
Off-chip DRAM Size: 4096 MB Channels: 1 Width: 64-bit Data Rate: 3200 MT/s

CPU 0 runs ../dpc3_traces/server_012.champsimtrace.xz
CPU 0 L1D next line prefetcher
Heartbeat CPU 0 instructions: 10000002 cycles: 3193175 heartbeat IPC: 3.13168 cumulative IPC: 3.13168 (Simulation time: 0 hr 1 min 19 sec) 
Heartbeat CPU 0 instructions: 20000002 cycles: 6388927 heartbeat IPC: 3.12915 cumulative IPC: 3.13042 (Simulation time: 0 hr 2 min 35 sec) 
Heartbeat CPU 0 instructions: 30000001 cycles: 9585547 heartbeat IPC: 3.1283 cumulative IPC: 3.12971 (Simulation time: 0 hr 3 min 49 sec) 
Heartbeat CPU 0 instructions: 40000000 cycles: 12788043 heartbeat IPC: 3.12256 cumulative IPC: 3.12792 (Simulation time: 0 hr 5 min 0 sec) 
Heartbeat CPU 0 instructions: 50000003 cycles: 15983255 heartbeat IPC: 3.12968 cumulative IPC: 3.12827 (Simulation time: 0 hr 6 min 15 sec) 

Warmup complete CPU 0 instructions: 50000003 cycles: 15983255 (Simulation time: 0 hr 6 min 15 sec) 

Heartbeat CPU 0 instructions: 60000002 cycles: 23243016 heartbeat IPC: 1.37746 cumulative IPC: 1.37746 (Simulation time: 0 hr 7 min 22 sec) 
Heartbeat CPU 0 instructions: 70000000 cycles: 30523037 heartbeat IPC: 1.37362 cumulative IPC: 1.37554 (Simulation time: 0 hr 8 min 31 sec) 
Heartbeat CPU 0 instructions: 80000003 cycles: 37811763 heartbeat IPC: 1.37198 cumulative IPC: 1.37435 (Simulation time: 0 hr 9 min 42 sec) 
Heartbeat CPU 0 instructions: 90000001 cycles: 45331086 heartbeat IPC: 1.32991 cumulative IPC: 1.36296 (Simulation time: 0 hr 10 min 54 sec) 
Heartbeat CPU 0 instructions: 100000002 cycles: 52735064 heartbeat IPC: 1.35063 cumulative IPC: 1.36048 (Simulation time: 0 hr 12 min 3 sec) 
Finished CPU 0 instructions: 50000001 cycles: 36751810 cumulative IPC: 1.36048 (Simulation time: 0 hr 12 min 3 sec) 

ChampSim completed all CPUs

Region of Interest Statistics

CPU 0 cumulative IPC: 1.36048 instructions: 50000001 cycles: 36751810

SHEET
IPC : 1.36048

L1D TOTAL     ACCESS:   17432180  HIT:   16388921  MISS:    1043259
L1D LOAD      ACCESS:    6353856  HIT:    5867503  MISS:     486353
L1D RFO       ACCESS:    4964006  HIT:    4881911  MISS:      82095
L1D PREFETCH  ACCESS:    6114318  HIT:    5639507  MISS:     474811
L1D WRITEBACK ACCESS:          0  HIT:          0  MISS:          0
L1D PREFETCH  REQUESTED:    6388896  ISSUED:    6289619  USEFUL:     134030  USELESS:     340802
L1D AVERAGE MISS LATENCY: 40.1567 cycles
L1D

SHEET
L1D-total_access : 17432180
L1D-total_hit : 16388921
L1D-total_miss : 1043259
L1D-load_access : 6353856
L1D-load_hit : 5867503
L1D-load_miss : 486353
L1D-rfo_access : 4964006
L1D-rfo_hit : 4881911
L1D-rfo_miss : 82095
L1D-prefetch_access : 6114318
L1D-prefetch_hit : 5639507
L1D-prefetch_miss : 474811
L1D-writeback_access : 0
L1D-writeback_hit : 0
L1D-writeback_miss : 0
L1D-prefetch_requested : 6388896
L1D-prefetch_issued : 6289619
L1D-prefetch_useful : 134030
L1D-prefetch_useless : 340802
L1D-Avg_miss_latency : 40.1567
L1D-Morteza_fill_l2_prefetches : 0

L1I TOTAL     ACCESS:   13713375  HIT:   11954899  MISS:    1758476
L1I LOAD      ACCESS:    8675622  HIT:    8356560  MISS:     319062
L1I RFO       ACCESS:          0  HIT:          0  MISS:          0
L1I PREFETCH  ACCESS:    5037753  HIT:    3598339  MISS:    1439414
L1I WRITEBACK ACCESS:          0  HIT:          0  MISS:          0
L1I PREFETCH  REQUESTED:    5431874  ISSUED:    5385089  USEFUL:    1060904  USELESS:     378477
L1I AVERAGE MISS LATENCY: 29.7315 cycles
L1I

SHEET
L1I-total_access : 13713375
L1I-total_hit : 11954899
L1I-total_miss : 1758476
L1I-load_access : 8675622
L1I-load_hit : 8356560
L1I-load_miss : 319062
L1I-rfo_access : 0
L1I-rfo_hit : 0
L1I-rfo_miss : 0
L1I-prefetch_access : 5037753
L1I-prefetch_hit : 3598339
L1I-prefetch_miss : 1439414
L1I-writeback_access : 0
L1I-writeback_hit : 0
L1I-writeback_miss : 0
L1I-prefetch_requested : 5431874
L1I-prefetch_issued : 5385089
L1I-prefetch_useful : 1060904
L1I-prefetch_useless : 378477
L1I-Avg_miss_latency : 29.7315
L1I-Morteza_fill_l2_prefetches : 0

L2C TOTAL     ACCESS:    3594310  HIT:    2326359  MISS:    1267951
L2C LOAD      ACCESS:     633884  HIT:     335374  MISS:     298510
L2C RFO       ACCESS:      80862  HIT:      31178  MISS:      49684
L2C PREFETCH  ACCESS:    2604025  HIT:    1685655  MISS:     918370
L2C WRITEBACK ACCESS:     275539  HIT:     274152  MISS:       1387
L2C PREFETCH  REQUESTED:    3372373  ISSUED:    3370201  USEFUL:      46990  USELESS:     871196
L2C AVERAGE MISS LATENCY: 46.2132 cycles
L2C

SHEET
L2C-total_access : 3594310
L2C-total_hit : 2326359
L2C-total_miss : 1267951
L2C-load_access : 633884
L2C-load_hit : 335374
L2C-load_miss : 298510
L2C-rfo_access : 80862
L2C-rfo_hit : 31178
L2C-rfo_miss : 49684
L2C-prefetch_access : 2604025
L2C-prefetch_hit : 1685655
L2C-prefetch_miss : 918370
L2C-writeback_access : 275539
L2C-writeback_hit : 274152
L2C-writeback_miss : 1387
L2C-prefetch_requested : 3372373
L2C-prefetch_issued : 3370201
L2C-prefetch_useful : 46990
L2C-prefetch_useless : 871196
L2C-Avg_miss_latency : 46.2132
L2C-Morteza_fill_l2_prefetches : 514730

LLC TOTAL     ACCESS:    2389565  HIT:    2244988  MISS:     144577
LLC LOAD      ACCESS:     298232  HIT:     278284  MISS:      19948
LLC RFO       ACCESS:      49676  HIT:      39545  MISS:      10131
LLC PREFETCH  ACCESS:    1875079  HIT:    1760814  MISS:     114265
LLC WRITEBACK ACCESS:     166578  HIT:     166345  MISS:        233
LLC PREFETCH  REQUESTED:          0  ISSUED:          0  USEFUL:      10874  USELESS:     103092
LLC AVERAGE MISS LATENCY: 172.77 cycles
LLC

SHEET
LLC-total_access : 2389565
LLC-total_hit : 2244988
LLC-total_miss : 144577
LLC-load_access : 298232
LLC-load_hit : 278284
LLC-load_miss : 19948
LLC-rfo_access : 49676
LLC-rfo_hit : 39545
LLC-rfo_miss : 10131
LLC-prefetch_access : 1875079
LLC-prefetch_hit : 1760814
LLC-prefetch_miss : 114265
LLC-writeback_access : 166578
LLC-writeback_hit : 166345
LLC-writeback_miss : 233
LLC-prefetch_requested : 0
LLC-prefetch_issued : 0
LLC-prefetch_useful : 10874
LLC-prefetch_useless : 103092
LLC-Avg_miss_latency : 172.77
LLC-Morteza_fill_l2_prefetches : 962431

Major fault: 0 Minor fault: 5660



Printing Logs
statHeadFound: 406623
statHeadMissing: 339491
statStreamBufferHit: 11403208
statPrefetchEntryFound: 3014773
statCompactorMatch: 10277528
statStreamTrackerLookup: 12149322
statRecord: 1871794
statGetPointer: 746114
statEnqueuePrefetch: 10699871
statPrefetchQueueIsFull: 227
StreamBufferHitRate: 0.938588
Regions' size: 3709
next_region_correct: 1530007
next_region_wrong: 338060
next_region_correct_prediction: 0.819032
statStreamBufferLookups: 874751184
statL1iLookups: 85598968
statCompactorLookups: 437375592
morteza: start

SHEET
mana_table_access_counter : 2647865
mana_table_multiple_access_counter : 2650547
hobp_table_access_counter : 16479400
sab_access_counter : 14417981
srq_access_counter : 12633525

morteza: end
CPU 0 L1D next line prefetcher final stats

DRAM Statistics
 CHANNEL 0
 RQ ROW_BUFFER_HIT:      22260  ROW_BUFFER_MISS:     122078
 DBUS_CONGESTED:      67401
 WQ ROW_BUFFER_HIT:      10827  ROW_BUFFER_MISS:      49204  FULL:          0

 AVG_CONGESTED_CYCLE: 5

CPU 0 Branch Prediction Accuracy: 99.4607% MPKI: 1.00288 Average ROB Occupancy at Mispredict: 110.623

Branch types
NOT_BRANCH: 40700968 81.4019%
BRANCH_DIRECT_JUMP: 469809 0.939618%
BRANCH_INDIRECT: 153732 0.307464%
BRANCH_CONDITIONAL: 6944059 13.8881%
BRANCH_DIRECT_CALL: 679877 1.35975%
BRANCH_INDIRECT_CALL: 168745 0.33749%
BRANCH_RETURN: 882491 1.76498%
BRANCH_OTHER: 0 0%

