Initialize SIGNATURE TABLE
ST_SET: 1
ST_WAY: 256
ST_TAG_BIT: 16
ST_TAG_MASK: ffff

Initialize PATTERN TABLE
PT_SET: 512
PT_WAY: 4
SIG_DELTA_BIT: 7
C_SIG_BIT: 4
C_DELTA_BIT: 4

Initialize PREFETCH FILTER
FILTER_SET: 1024
MANA initialize 
tds: 2 tdm: 4
size MANA SINGLE: 74 KB
size MANA NULTIPLE: 43 KB
size HOBPT: 5 KB
size SRQ: 0.14502 KB
size SABs: 0.290039 KB
size prefetch queue: 0.453125 KB
total: 122.888 KB

*** ChampSim Multicore Out-of-Order Simulator ***

Warmup Instructions: 50000000
Simulation Instructions: 50000000
Number of CPUs: 1
LLC sets: 2048
LLC ways: 16
Off-chip DRAM Size: 4096 MB Channels: 1 Width: 64-bit Data Rate: 3200 MT/s

CPU 0 runs ../dpc3_traces/server_028.champsimtrace.xz
CPU 0 L1D next line prefetcher
Heartbeat CPU 0 instructions: 10000001 cycles: 3495568 heartbeat IPC: 2.86077 cumulative IPC: 2.86077 (Simulation time: 0 hr 1 min 23 sec) 
Heartbeat CPU 0 instructions: 20000002 cycles: 6990419 heartbeat IPC: 2.86135 cumulative IPC: 2.86106 (Simulation time: 0 hr 2 min 46 sec) 
Heartbeat CPU 0 instructions: 30000001 cycles: 10483450 heartbeat IPC: 2.86284 cumulative IPC: 2.86165 (Simulation time: 0 hr 4 min 5 sec) 
Heartbeat CPU 0 instructions: 40000002 cycles: 13982384 heartbeat IPC: 2.85801 cumulative IPC: 2.86074 (Simulation time: 0 hr 5 min 32 sec) 
Heartbeat CPU 0 instructions: 50000001 cycles: 17477676 heartbeat IPC: 2.86099 cumulative IPC: 2.86079 (Simulation time: 0 hr 7 min 5 sec) 

Warmup complete CPU 0 instructions: 50000001 cycles: 17477676 (Simulation time: 0 hr 7 min 5 sec) 

Heartbeat CPU 0 instructions: 60000000 cycles: 25268794 heartbeat IPC: 1.28351 cumulative IPC: 1.28351 (Simulation time: 0 hr 8 min 34 sec) 
Heartbeat CPU 0 instructions: 70000000 cycles: 33029639 heartbeat IPC: 1.28852 cumulative IPC: 1.28601 (Simulation time: 0 hr 9 min 58 sec) 
Heartbeat CPU 0 instructions: 80000000 cycles: 40806698 heartbeat IPC: 1.28583 cumulative IPC: 1.28595 (Simulation time: 0 hr 11 min 24 sec) 
*** Reached end of trace for Core: 0 Repeating trace: ../dpc3_traces/server_028.champsimtrace.xz
Heartbeat CPU 0 instructions: 90000001 cycles: 48542026 heartbeat IPC: 1.29277 cumulative IPC: 1.28765 (Simulation time: 0 hr 12 min 49 sec) 
Heartbeat CPU 0 instructions: 100000003 cycles: 56243040 heartbeat IPC: 1.29853 cumulative IPC: 1.28981 (Simulation time: 0 hr 14 min 11 sec) 
Finished CPU 0 instructions: 50000002 cycles: 38765364 cumulative IPC: 1.28981 (Simulation time: 0 hr 14 min 11 sec) 

ChampSim completed all CPUs

Region of Interest Statistics

CPU 0 cumulative IPC: 1.28981 instructions: 50000002 cycles: 38765364

SHEET
IPC : 1.28981

L1D TOTAL     ACCESS:   19342193  HIT:   17268133  MISS:    2074060
L1D LOAD      ACCESS:    6865912  HIT:    5818842  MISS:    1047070
L1D RFO       ACCESS:    6110055  HIT:    5826405  MISS:     283650
L1D PREFETCH  ACCESS:    6366226  HIT:    5622886  MISS:     743340
L1D WRITEBACK ACCESS:          0  HIT:          0  MISS:          0
L1D PREFETCH  REQUESTED:    6927005  ISSUED:    6825766  USEFUL:     176768  USELESS:     566573
L1D AVERAGE MISS LATENCY: 21.8181 cycles
L1D

SHEET
L1D-total_access : 19342193
L1D-total_hit : 17268133
L1D-total_miss : 2074060
L1D-load_access : 6865912
L1D-load_hit : 5818842
L1D-load_miss : 1047070
L1D-rfo_access : 6110055
L1D-rfo_hit : 5826405
L1D-rfo_miss : 283650
L1D-prefetch_access : 6366226
L1D-prefetch_hit : 5622886
L1D-prefetch_miss : 743340
L1D-writeback_access : 0
L1D-writeback_hit : 0
L1D-writeback_miss : 0
L1D-prefetch_requested : 6927005
L1D-prefetch_issued : 6825766
L1D-prefetch_useful : 176768
L1D-prefetch_useless : 566573
L1D-Avg_miss_latency : 21.8181
L1D-Morteza_fill_l2_prefetches : 0

L1I TOTAL     ACCESS:   15162479  HIT:   11644124  MISS:    3518355
L1I LOAD      ACCESS:    9529219  HIT:    8809512  MISS:     719707
L1I RFO       ACCESS:          0  HIT:          0  MISS:          0
L1I PREFETCH  ACCESS:    5633260  HIT:    2834612  MISS:    2798648
L1I WRITEBACK ACCESS:          0  HIT:          0  MISS:          0
L1I PREFETCH  REQUESTED:    6359380  ISSUED:    6358968  USEFUL:    2209525  USELESS:     589139
L1I AVERAGE MISS LATENCY: 16.4643 cycles
L1I

SHEET
L1I-total_access : 15162479
L1I-total_hit : 11644124
L1I-total_miss : 3518355
L1I-load_access : 9529219
L1I-load_hit : 8809512
L1I-load_miss : 719707
L1I-rfo_access : 0
L1I-rfo_hit : 0
L1I-rfo_miss : 0
L1I-prefetch_access : 5633260
L1I-prefetch_hit : 2834612
L1I-prefetch_miss : 2798648
L1I-writeback_access : 0
L1I-writeback_hit : 0
L1I-writeback_miss : 0
L1I-prefetch_requested : 6359380
L1I-prefetch_issued : 6358968
L1I-prefetch_useful : 2209525
L1I-prefetch_useless : 589139
L1I-Avg_miss_latency : 16.4643
L1I-Morteza_fill_l2_prefetches : 0

L2C TOTAL     ACCESS:    7796526  HIT:    6974611  MISS:     821915
L2C LOAD      ACCESS:    1244466  HIT:    1057271  MISS:     187195
L2C RFO       ACCESS:     281671  HIT:     211755  MISS:      69916
L2C PREFETCH  ACCESS:    5665347  HIT:    5104643  MISS:     560704
L2C WRITEBACK ACCESS:     605042  HIT:     600942  MISS:       4100
L2C PREFETCH  REQUESTED:    7244645  ISSUED:    7217997  USEFUL:      26139  USELESS:     534183
L2C AVERAGE MISS LATENCY: 40.5143 cycles
L2C

SHEET
L2C-total_access : 7796526
L2C-total_hit : 6974611
L2C-total_miss : 821915
L2C-load_access : 1244466
L2C-load_hit : 1057271
L2C-load_miss : 187195
L2C-rfo_access : 281671
L2C-rfo_hit : 211755
L2C-rfo_miss : 69916
L2C-prefetch_access : 5665347
L2C-prefetch_hit : 5104643
L2C-prefetch_miss : 560704
L2C-writeback_access : 605042
L2C-writeback_hit : 600942
L2C-writeback_miss : 4100
L2C-prefetch_requested : 7244645
L2C-prefetch_issued : 7217997
L2C-prefetch_useful : 26139
L2C-prefetch_useless : 534183
L2C-Avg_miss_latency : 40.5143
L2C-Morteza_fill_l2_prefetches : 1660590

LLC TOTAL     ACCESS:    3085928  HIT:    3010414  MISS:      75514
LLC LOAD      ACCESS:     186963  HIT:     170385  MISS:      16578
LLC RFO       ACCESS:      69915  HIT:      67944  MISS:       1971
LLC PREFETCH  ACCESS:    2711233  HIT:    2654688  MISS:      56545
LLC WRITEBACK ACCESS:     117817  HIT:     117397  MISS:        420
LLC PREFETCH  REQUESTED:          0  ISSUED:          0  USEFUL:       2517  USELESS:      52868
LLC AVERAGE MISS LATENCY: 158.576 cycles
LLC

SHEET
LLC-total_access : 3085928
LLC-total_hit : 3010414
LLC-total_miss : 75514
LLC-load_access : 186963
LLC-load_hit : 170385
LLC-load_miss : 16578
LLC-rfo_access : 69915
LLC-rfo_hit : 67944
LLC-rfo_miss : 1971
LLC-prefetch_access : 2711233
LLC-prefetch_hit : 2654688
LLC-prefetch_miss : 56545
LLC-writeback_access : 117817
LLC-writeback_hit : 117397
LLC-writeback_miss : 420
LLC-prefetch_requested : 0
LLC-prefetch_issued : 0
LLC-prefetch_useful : 2517
LLC-prefetch_useless : 52868
LLC-Avg_miss_latency : 158.576
LLC-Morteza_fill_l2_prefetches : 2135791

Major fault: 0 Minor fault: 6100



Printing Logs
statHeadFound: 609492
statHeadMissing: 562323
statStreamBufferHit: 13273072
statPrefetchEntryFound: 4292292
statCompactorMatch: 11774888
statStreamTrackerLookup: 14444887
statRecord: 2669999
statGetPointer: 1171815
statEnqueuePrefetch: 12651032
statPrefetchQueueIsFull: 0
StreamBufferHitRate: 0.918877
Regions' size: 1863
next_region_correct: 1866363
next_region_wrong: 801755
next_region_correct_prediction: 0.699505
statStreamBufferLookups: 1040031864
statL1iLookups: 101208256
statCompactorLookups: 520015932
morteza: start

SHEET
mana_table_access_counter : 4320120
mana_table_multiple_access_counter : 3254414
hobp_table_access_counter : 24351382
sab_access_counter : 17565364
srq_access_counter : 15820481

morteza: end
CPU 0 L1D next line prefetcher final stats

DRAM Statistics
 CHANNEL 0
 RQ ROW_BUFFER_HIT:      20648  ROW_BUFFER_MISS:      54446
 DBUS_CONGESTED:      32007
 WQ ROW_BUFFER_HIT:        405  ROW_BUFFER_MISS:       3390  FULL:          0

 AVG_CONGESTED_CYCLE: 5

CPU 0 Branch Prediction Accuracy: 99.7093% MPKI: 0.54708 Average ROB Occupancy at Mispredict: 137.805

Branch types
NOT_BRANCH: 40591013 81.182%
BRANCH_DIRECT_JUMP: 523492 1.04698%
BRANCH_INDIRECT: 166997 0.333994%
BRANCH_CONDITIONAL: 6365198 12.7304%
BRANCH_DIRECT_CALL: 989497 1.97899%
BRANCH_INDIRECT_CALL: 187203 0.374406%
BRANCH_RETURN: 1176699 2.3534%
BRANCH_OTHER: 0 0%

