Initialize SIGNATURE TABLE
ST_SET: 1
ST_WAY: 256
ST_TAG_BIT: 16
ST_TAG_MASK: ffff

Initialize PATTERN TABLE
PT_SET: 512
PT_WAY: 4
SIG_DELTA_BIT: 7
C_SIG_BIT: 4
C_DELTA_BIT: 4

Initialize PREFETCH FILTER
FILTER_SET: 1024
MANA initialize 
tds: 2 tdm: 4
size MANA SINGLE: 74 KB
size MANA NULTIPLE: 43 KB
size HOBPT: 5 KB
size SRQ: 0.14502 KB
size SABs: 0.290039 KB
size prefetch queue: 0.453125 KB
total: 122.888 KB

*** ChampSim Multicore Out-of-Order Simulator ***

Warmup Instructions: 50000000
Simulation Instructions: 50000000
Number of CPUs: 1
LLC sets: 2048
LLC ways: 16
Off-chip DRAM Size: 4096 MB Channels: 1 Width: 64-bit Data Rate: 3200 MT/s

CPU 0 runs ../dpc3_traces/server_030.champsimtrace.xz
CPU 0 L1D next line prefetcher
Heartbeat CPU 0 instructions: 10000003 cycles: 3508631 heartbeat IPC: 2.85012 cumulative IPC: 2.85012 (Simulation time: 0 hr 1 min 24 sec) 
Heartbeat CPU 0 instructions: 20000003 cycles: 7016910 heartbeat IPC: 2.8504 cumulative IPC: 2.85026 (Simulation time: 0 hr 2 min 46 sec) 
Heartbeat CPU 0 instructions: 30000000 cycles: 10523720 heartbeat IPC: 2.85159 cumulative IPC: 2.8507 (Simulation time: 0 hr 4 min 8 sec) 
Heartbeat CPU 0 instructions: 40000002 cycles: 14030451 heartbeat IPC: 2.85166 cumulative IPC: 2.85094 (Simulation time: 0 hr 5 min 33 sec) 
Heartbeat CPU 0 instructions: 50000002 cycles: 17540070 heartbeat IPC: 2.84931 cumulative IPC: 2.85062 (Simulation time: 0 hr 6 min 56 sec) 

Warmup complete CPU 0 instructions: 50000002 cycles: 17540070 (Simulation time: 0 hr 6 min 56 sec) 

Heartbeat CPU 0 instructions: 60000000 cycles: 24744553 heartbeat IPC: 1.38802 cumulative IPC: 1.38802 (Simulation time: 0 hr 8 min 20 sec) 
Heartbeat CPU 0 instructions: 70000000 cycles: 31984849 heartbeat IPC: 1.38116 cumulative IPC: 1.38458 (Simulation time: 0 hr 9 min 52 sec) 
Heartbeat CPU 0 instructions: 80000001 cycles: 39189345 heartbeat IPC: 1.38802 cumulative IPC: 1.38573 (Simulation time: 0 hr 11 min 16 sec) 
*** Reached end of trace for Core: 0 Repeating trace: ../dpc3_traces/server_030.champsimtrace.xz
Heartbeat CPU 0 instructions: 90000002 cycles: 46414423 heartbeat IPC: 1.38407 cumulative IPC: 1.38531 (Simulation time: 0 hr 12 min 54 sec) 
Heartbeat CPU 0 instructions: 100000002 cycles: 53598014 heartbeat IPC: 1.39206 cumulative IPC: 1.38666 (Simulation time: 0 hr 14 min 24 sec) 
Finished CPU 0 instructions: 50000000 cycles: 36057944 cumulative IPC: 1.38666 (Simulation time: 0 hr 14 min 24 sec) 

ChampSim completed all CPUs

Region of Interest Statistics

CPU 0 cumulative IPC: 1.38666 instructions: 50000000 cycles: 36057944

SHEET
IPC : 1.38666

L1D TOTAL     ACCESS:   19403982  HIT:   17328345  MISS:    2075637
L1D LOAD      ACCESS:    6884122  HIT:    5830511  MISS:    1053611
L1D RFO       ACCESS:    6179073  HIT:    5893803  MISS:     285270
L1D PREFETCH  ACCESS:    6340787  HIT:    5604031  MISS:     736756
L1D WRITEBACK ACCESS:          0  HIT:          0  MISS:          0
L1D PREFETCH  REQUESTED:    6934507  ISSUED:    6807554  USEFUL:     182069  USELESS:     554780
L1D AVERAGE MISS LATENCY: 18.4718 cycles
L1D

SHEET
L1D-total_access : 19403982
L1D-total_hit : 17328345
L1D-total_miss : 2075637
L1D-load_access : 6884122
L1D-load_hit : 5830511
L1D-load_miss : 1053611
L1D-rfo_access : 6179073
L1D-rfo_hit : 5893803
L1D-rfo_miss : 285270
L1D-prefetch_access : 6340787
L1D-prefetch_hit : 5604031
L1D-prefetch_miss : 736756
L1D-writeback_access : 0
L1D-writeback_hit : 0
L1D-writeback_miss : 0
L1D-prefetch_requested : 6934507
L1D-prefetch_issued : 6807554
L1D-prefetch_useful : 182069
L1D-prefetch_useless : 554780
L1D-Avg_miss_latency : 18.4718
L1D-Morteza_fill_l2_prefetches : 0

L1I TOTAL     ACCESS:   15271165  HIT:   11654423  MISS:    3616742
L1I LOAD      ACCESS:    9553023  HIT:    8848611  MISS:     704412
L1I RFO       ACCESS:          0  HIT:          0  MISS:          0
L1I PREFETCH  ACCESS:    5718142  HIT:    2805812  MISS:    2912330
L1I WRITEBACK ACCESS:          0  HIT:          0  MISS:          0
L1I PREFETCH  REQUESTED:    6439259  ISSUED:    6437556  USEFUL:    2290490  USELESS:     621824
L1I AVERAGE MISS LATENCY: 15.7545 cycles
L1I

SHEET
L1I-total_access : 15271165
L1I-total_hit : 11654423
L1I-total_miss : 3616742
L1I-load_access : 9553023
L1I-load_hit : 8848611
L1I-load_miss : 704412
L1I-rfo_access : 0
L1I-rfo_hit : 0
L1I-rfo_miss : 0
L1I-prefetch_access : 5718142
L1I-prefetch_hit : 2805812
L1I-prefetch_miss : 2912330
L1I-writeback_access : 0
L1I-writeback_hit : 0
L1I-writeback_miss : 0
L1I-prefetch_requested : 6439259
L1I-prefetch_issued : 6437556
L1I-prefetch_useful : 2290490
L1I-prefetch_useless : 621824
L1I-Avg_miss_latency : 15.7545
L1I-Morteza_fill_l2_prefetches : 0

L2C TOTAL     ACCESS:    7921322  HIT:    7283958  MISS:     637364
L2C LOAD      ACCESS:    1236181  HIT:    1082663  MISS:     153518
L2C RFO       ACCESS:     283617  HIT:     231044  MISS:      52573
L2C PREFETCH  ACCESS:    5786067  HIT:    5357140  MISS:     428927
L2C WRITEBACK ACCESS:     615457  HIT:     613111  MISS:       2346
L2C PREFETCH  REQUESTED:    7020891  ISSUED:    6995119  USEFUL:      22083  USELESS:     406304
L2C AVERAGE MISS LATENCY: 35.1118 cycles
L2C

SHEET
L2C-total_access : 7921322
L2C-total_hit : 7283958
L2C-total_miss : 637364
L2C-load_access : 1236181
L2C-load_hit : 1082663
L2C-load_miss : 153518
L2C-rfo_access : 283617
L2C-rfo_hit : 231044
L2C-rfo_miss : 52573
L2C-prefetch_access : 5786067
L2C-prefetch_hit : 5357140
L2C-prefetch_miss : 428927
L2C-writeback_access : 615457
L2C-writeback_hit : 613111
L2C-writeback_miss : 2346
L2C-prefetch_requested : 7020891
L2C-prefetch_issued : 6995119
L2C-prefetch_useful : 22083
L2C-prefetch_useless : 406304
L2C-Avg_miss_latency : 35.1118
L2C-Morteza_fill_l2_prefetches : 1685828

LLC TOTAL     ACCESS:    2917543  HIT:    2894150  MISS:      23393
LLC LOAD      ACCESS:     153166  HIT:     150208  MISS:       2958
LLC RFO       ACCESS:      52331  HIT:      50529  MISS:       1802
LLC PREFETCH  ACCESS:    2617330  HIT:    2598829  MISS:      18501
LLC WRITEBACK ACCESS:      94716  HIT:      94584  MISS:        132
LLC PREFETCH  REQUESTED:          0  ISSUED:          0  USEFUL:        981  USELESS:      16160
LLC AVERAGE MISS LATENCY: 148.479 cycles
LLC

SHEET
LLC-total_access : 2917543
LLC-total_hit : 2894150
LLC-total_miss : 23393
LLC-load_access : 153166
LLC-load_hit : 150208
LLC-load_miss : 2958
LLC-rfo_access : 52331
LLC-rfo_hit : 50529
LLC-rfo_miss : 1802
LLC-prefetch_access : 2617330
LLC-prefetch_hit : 2598829
LLC-prefetch_miss : 18501
LLC-writeback_access : 94716
LLC-writeback_hit : 94584
LLC-writeback_miss : 132
LLC-prefetch_requested : 0
LLC-prefetch_issued : 0
LLC-prefetch_useful : 981
LLC-prefetch_useless : 16160
LLC-Avg_miss_latency : 148.479
LLC-Morteza_fill_l2_prefetches : 2193434

Major fault: 0 Minor fault: 2103



Printing Logs
statHeadFound: 620344
statHeadMissing: 580569
statStreamBufferHit: 13302275
statPrefetchEntryFound: 4367548
statCompactorMatch: 11772541
statStreamTrackerLookup: 14503188
statRecord: 2730647
statGetPointer: 1200913
statEnqueuePrefetch: 12853925
statPrefetchQueueIsFull: 0
StreamBufferHitRate: 0.917197
Regions' size: 2017
next_region_correct: 1914266
next_region_wrong: 814346
next_region_correct_prediction: 0.701553
statStreamBufferLookups: 1044229536
statL1iLookups: 102831400
statCompactorLookups: 522114768
morteza: start

SHEET
mana_table_access_counter : 4398324
mana_table_multiple_access_counter : 3323182
hobp_table_access_counter : 24902374
sab_access_counter : 17669823
srq_access_counter : 15937930

morteza: end
CPU 0 L1D next line prefetcher final stats

DRAM Statistics
 CHANNEL 0
 RQ ROW_BUFFER_HIT:       7426  ROW_BUFFER_MISS:      15834
 DBUS_CONGESTED:       8047
 WQ ROW_BUFFER_HIT:        181  ROW_BUFFER_MISS:       2648  FULL:          0

 AVG_CONGESTED_CYCLE: 5

CPU 0 Branch Prediction Accuracy: 99.8445% MPKI: 0.29148 Average ROB Occupancy at Mispredict: 152.294

Branch types
NOT_BRANCH: 40627996 81.256%
BRANCH_DIRECT_JUMP: 490941 0.981882%
BRANCH_INDIRECT: 175853 0.351706%
BRANCH_CONDITIONAL: 6321406 12.6428%
BRANCH_DIRECT_CALL: 1002069 2.00414%
BRANCH_INDIRECT_CALL: 189783 0.379566%
BRANCH_RETURN: 1191850 2.3837%
BRANCH_OTHER: 0 0%

