Initialize SIGNATURE TABLE
ST_SET: 1
ST_WAY: 256
ST_TAG_BIT: 16
ST_TAG_MASK: ffff

Initialize PATTERN TABLE
PT_SET: 512
PT_WAY: 4
SIG_DELTA_BIT: 7
C_SIG_BIT: 4
C_DELTA_BIT: 4

Initialize PREFETCH FILTER
FILTER_SET: 1024
MANA initialize 
tds: 2 tdm: 4
size MANA SINGLE: 74 KB
size MANA NULTIPLE: 43 KB
size HOBPT: 5 KB
size SRQ: 0.14502 KB
size SABs: 0.290039 KB
size prefetch queue: 0.453125 KB
total: 122.888 KB

*** ChampSim Multicore Out-of-Order Simulator ***

Warmup Instructions: 50000000
Simulation Instructions: 50000000
Number of CPUs: 1
LLC sets: 2048
LLC ways: 16
Off-chip DRAM Size: 4096 MB Channels: 1 Width: 64-bit Data Rate: 3200 MT/s

CPU 0 runs ../dpc3_traces/spec_gcc_003.champsimtrace.xz
CPU 0 L1D next line prefetcher
Heartbeat CPU 0 instructions: 10000001 cycles: 3482144 heartbeat IPC: 2.87179 cumulative IPC: 2.87179 (Simulation time: 0 hr 1 min 20 sec) 
Heartbeat CPU 0 instructions: 20000000 cycles: 6955662 heartbeat IPC: 2.87893 cumulative IPC: 2.87536 (Simulation time: 0 hr 2 min 26 sec) 
Heartbeat CPU 0 instructions: 30000002 cycles: 10396986 heartbeat IPC: 2.90586 cumulative IPC: 2.88545 (Simulation time: 0 hr 3 min 31 sec) 
Heartbeat CPU 0 instructions: 40000000 cycles: 13868416 heartbeat IPC: 2.88066 cumulative IPC: 2.88425 (Simulation time: 0 hr 4 min 44 sec) 
Heartbeat CPU 0 instructions: 50000001 cycles: 17176878 heartbeat IPC: 3.02255 cumulative IPC: 2.91089 (Simulation time: 0 hr 5 min 42 sec) 

Warmup complete CPU 0 instructions: 50000001 cycles: 17176878 (Simulation time: 0 hr 5 min 42 sec) 

Heartbeat CPU 0 instructions: 60000000 cycles: 55695447 heartbeat IPC: 0.259615 cumulative IPC: 0.259615 (Simulation time: 0 hr 8 min 16 sec) 
Heartbeat CPU 0 instructions: 70000000 cycles: 96716056 heartbeat IPC: 0.24378 cumulative IPC: 0.251448 (Simulation time: 0 hr 10 min 41 sec) 
Heartbeat CPU 0 instructions: 80000003 cycles: 138724380 heartbeat IPC: 0.238048 cumulative IPC: 0.246817 (Simulation time: 0 hr 13 min 10 sec) 
Heartbeat CPU 0 instructions: 90000002 cycles: 174285920 heartbeat IPC: 0.281203 cumulative IPC: 0.2546 (Simulation time: 0 hr 15 min 22 sec) 
Heartbeat CPU 0 instructions: 100000001 cycles: 218392028 heartbeat IPC: 0.226726 cumulative IPC: 0.24849 (Simulation time: 0 hr 17 min 57 sec) 
Finished CPU 0 instructions: 50000000 cycles: 201215150 cumulative IPC: 0.24849 (Simulation time: 0 hr 17 min 57 sec) 

ChampSim completed all CPUs

Region of Interest Statistics

CPU 0 cumulative IPC: 0.24849 instructions: 50000000 cycles: 201215150

SHEET
IPC : 0.24849

L1D TOTAL     ACCESS:   17007577  HIT:   11283145  MISS:    5724432
L1D LOAD      ACCESS:    4636524  HIT:    4253765  MISS:     382759
L1D RFO       ACCESS:    8221545  HIT:    3169866  MISS:    5051679
L1D PREFETCH  ACCESS:    4149508  HIT:    3859514  MISS:     289994
L1D WRITEBACK ACCESS:          0  HIT:          0  MISS:          0
L1D PREFETCH  REQUESTED:    4654356  ISSUED:    4595820  USEFUL:     152412  USELESS:     137762
L1D AVERAGE MISS LATENCY: 475.329 cycles
L1D

SHEET
L1D-total_access : 17007577
L1D-total_hit : 11283145
L1D-total_miss : 5724432
L1D-load_access : 4636524
L1D-load_hit : 4253765
L1D-load_miss : 382759
L1D-rfo_access : 8221545
L1D-rfo_hit : 3169866
L1D-rfo_miss : 5051679
L1D-prefetch_access : 4149508
L1D-prefetch_hit : 3859514
L1D-prefetch_miss : 289994
L1D-writeback_access : 0
L1D-writeback_hit : 0
L1D-writeback_miss : 0
L1D-prefetch_requested : 4654356
L1D-prefetch_issued : 4595820
L1D-prefetch_useful : 152412
L1D-prefetch_useless : 137762
L1D-Avg_miss_latency : 475.329
L1D-Morteza_fill_l2_prefetches : 0

L1I TOTAL     ACCESS:   14753753  HIT:   13690195  MISS:    1063558
L1I LOAD      ACCESS:   11231637  HIT:   10965031  MISS:     266606
L1I RFO       ACCESS:          0  HIT:          0  MISS:          0
L1I PREFETCH  ACCESS:    3522116  HIT:    2725164  MISS:     796952
L1I WRITEBACK ACCESS:          0  HIT:          0  MISS:          0
L1I PREFETCH  REQUESTED:    3957804  ISSUED:    3866146  USEFUL:     522730  USELESS:     274161
L1I AVERAGE MISS LATENCY: 51.9942 cycles
L1I

SHEET
L1I-total_access : 14753753
L1I-total_hit : 13690195
L1I-total_miss : 1063558
L1I-load_access : 11231637
L1I-load_hit : 10965031
L1I-load_miss : 266606
L1I-rfo_access : 0
L1I-rfo_hit : 0
L1I-rfo_miss : 0
L1I-prefetch_access : 3522116
L1I-prefetch_hit : 2725164
L1I-prefetch_miss : 796952
L1I-writeback_access : 0
L1I-writeback_hit : 0
L1I-writeback_miss : 0
L1I-prefetch_requested : 3957804
L1I-prefetch_issued : 3866146
L1I-prefetch_useful : 522730
L1I-prefetch_useless : 274161
L1I-Avg_miss_latency : 51.9942
L1I-Morteza_fill_l2_prefetches : 0

L2C TOTAL     ACCESS:   12248905  HIT:    6200503  MISS:    6048402
L2C LOAD      ACCESS:     383898  HIT:     146130  MISS:     237768
L2C RFO       ACCESS:    5049939  HIT:       6507  MISS:    5043432
L2C PREFETCH  ACCESS:    1657150  HIT:     890199  MISS:     766951
L2C WRITEBACK ACCESS:    5157918  HIT:    5157667  MISS:        251
L2C PREFETCH  REQUESTED:    2066313  ISSUED:    2066231  USEFUL:      61384  USELESS:     702655
L2C AVERAGE MISS LATENCY: 446.077 cycles
L2C

SHEET
L2C-total_access : 12248905
L2C-total_hit : 6200503
L2C-total_miss : 6048402
L2C-load_access : 383898
L2C-load_hit : 146130
L2C-load_miss : 237768
L2C-rfo_access : 5049939
L2C-rfo_hit : 6507
L2C-rfo_miss : 5043432
L2C-prefetch_access : 1657150
L2C-prefetch_hit : 890199
L2C-prefetch_miss : 766951
L2C-writeback_access : 5157918
L2C-writeback_hit : 5157667
L2C-writeback_miss : 251
L2C-prefetch_requested : 2066313
L2C-prefetch_issued : 2066231
L2C-prefetch_useful : 61384
L2C-prefetch_useless : 702655
L2C-Avg_miss_latency : 446.077
L2C-Morteza_fill_l2_prefetches : 261348

LLC TOTAL     ACCESS:   11954267  HIT:    7496321  MISS:    4457946
LLC LOAD      ACCESS:     237722  HIT:     183280  MISS:      54442
LLC RFO       ACCESS:    5043432  HIT:     872787  MISS:    4170645
LLC PREFETCH  ACCESS:    1539474  HIT:    1306615  MISS:     232859
LLC WRITEBACK ACCESS:    5133639  HIT:    5133639  MISS:          0
LLC PREFETCH  REQUESTED:          0  ISSUED:          0  USEFUL:      19375  USELESS:     213383
LLC AVERAGE MISS LATENCY: 570.926 cycles
LLC

SHEET
LLC-total_access : 11954267
LLC-total_hit : 7496321
LLC-total_miss : 4457946
LLC-load_access : 237722
LLC-load_hit : 183280
LLC-load_miss : 54442
LLC-rfo_access : 5043432
LLC-rfo_hit : 872787
LLC-rfo_miss : 4170645
LLC-prefetch_access : 1539474
LLC-prefetch_hit : 1306615
LLC-prefetch_miss : 232859
LLC-writeback_access : 5133639
LLC-writeback_hit : 5133639
LLC-writeback_miss : 0
LLC-prefetch_requested : 0
LLC-prefetch_issued : 0
LLC-prefetch_useful : 19375
LLC-prefetch_useless : 213383
LLC-Avg_miss_latency : 570.926
LLC-Morteza_fill_l2_prefetches : 777047

Major fault: 0 Minor fault: 2912



Printing Logs
statHeadFound: 505956
statHeadMissing: 2044908
statStreamBufferHit: 7417525
statPrefetchEntryFound: 2400005
statCompactorMatch: 9004569
statStreamTrackerLookup: 9968389
statRecord: 963820
statGetPointer: 2550864
statEnqueuePrefetch: 7307192
statPrefetchQueueIsFull: 558
StreamBufferHitRate: 0.744105
Regions' size: 1479
next_region_correct: 560746
next_region_wrong: 401577
next_region_correct_prediction: 0.5827
statStreamBufferLookups: 717724008
statL1iLookups: 58457536
statCompactorLookups: 358862004
morteza: start

SHEET
mana_table_access_counter : 1389248
mana_table_multiple_access_counter : 2483458
hobp_table_access_counter : 26666665
sab_access_counter : 9817530
srq_access_counter : 9334414

morteza: end
CPU 0 L1D next line prefetcher final stats

DRAM Statistics
 CHANNEL 0
 RQ ROW_BUFFER_HIT:    1344107  ROW_BUFFER_MISS:    3113747
 DBUS_CONGESTED:    7726529
 WQ ROW_BUFFER_HIT:    1129071  ROW_BUFFER_MISS:    3067680  FULL:          0

 AVG_CONGESTED_CYCLE: 6

CPU 0 Branch Prediction Accuracy: 99.665% MPKI: 0.78342 Average ROB Occupancy at Mispredict: 105.283

Branch types
NOT_BRANCH: 38305858 76.6117%
BRANCH_DIRECT_JUMP: 384281 0.768562%
BRANCH_INDIRECT: 71949 0.143898%
BRANCH_CONDITIONAL: 9879825 19.7597%
BRANCH_DIRECT_CALL: 650586 1.30117%
BRANCH_INDIRECT_CALL: 28456 0.056912%
BRANCH_RETURN: 679046 1.35809%
BRANCH_OTHER: 0 0%

