Initialize SIGNATURE TABLE
ST_SET: 1
ST_WAY: 256
ST_TAG_BIT: 16
ST_TAG_MASK: ffff

Initialize PATTERN TABLE
PT_SET: 512
PT_WAY: 4
SIG_DELTA_BIT: 7
C_SIG_BIT: 4
C_DELTA_BIT: 4

Initialize PREFETCH FILTER
FILTER_SET: 1024
MANA initialize 
tds: 2 tdm: 4
size MANA SINGLE: 74 KB
size MANA NULTIPLE: 43 KB
size HOBPT: 5 KB
size SRQ: 0.14502 KB
size SABs: 0.290039 KB
size prefetch queue: 0.453125 KB
total: 122.888 KB

*** ChampSim Multicore Out-of-Order Simulator ***

Warmup Instructions: 50000000
Simulation Instructions: 50000000
Number of CPUs: 1
LLC sets: 2048
LLC ways: 16
Off-chip DRAM Size: 4096 MB Channels: 1 Width: 64-bit Data Rate: 3200 MT/s

CPU 0 runs ../dpc3_traces/spec_gobmk_002.champsimtrace.xz
CPU 0 L1D next line prefetcher
Heartbeat CPU 0 instructions: 10000001 cycles: 3287547 heartbeat IPC: 3.04178 cumulative IPC: 3.04178 (Simulation time: 0 hr 1 min 9 sec) 
Heartbeat CPU 0 instructions: 20000000 cycles: 6619141 heartbeat IPC: 3.00157 cumulative IPC: 3.02154 (Simulation time: 0 hr 2 min 12 sec) 
Heartbeat CPU 0 instructions: 30000000 cycles: 9957121 heartbeat IPC: 2.99582 cumulative IPC: 3.01292 (Simulation time: 0 hr 3 min 18 sec) 
Heartbeat CPU 0 instructions: 40000000 cycles: 13266540 heartbeat IPC: 3.02168 cumulative IPC: 3.0151 (Simulation time: 0 hr 4 min 24 sec) 
Heartbeat CPU 0 instructions: 50000003 cycles: 16530080 heartbeat IPC: 3.06416 cumulative IPC: 3.02479 (Simulation time: 0 hr 5 min 29 sec) 

Warmup complete CPU 0 instructions: 50000003 cycles: 16530080 (Simulation time: 0 hr 5 min 29 sec) 

Heartbeat CPU 0 instructions: 60000003 cycles: 24058848 heartbeat IPC: 1.32824 cumulative IPC: 1.32824 (Simulation time: 0 hr 6 min 17 sec) 
Heartbeat CPU 0 instructions: 70000000 cycles: 31532566 heartbeat IPC: 1.33802 cumulative IPC: 1.33311 (Simulation time: 0 hr 7 min 2 sec) 
Heartbeat CPU 0 instructions: 80000000 cycles: 38869898 heartbeat IPC: 1.36289 cumulative IPC: 1.34289 (Simulation time: 0 hr 7 min 47 sec) 
Heartbeat CPU 0 instructions: 90000000 cycles: 46511338 heartbeat IPC: 1.30865 cumulative IPC: 1.33417 (Simulation time: 0 hr 8 min 30 sec) 
Heartbeat CPU 0 instructions: 100000003 cycles: 54368115 heartbeat IPC: 1.27279 cumulative IPC: 1.32142 (Simulation time: 0 hr 9 min 15 sec) 
Finished CPU 0 instructions: 50000000 cycles: 37838035 cumulative IPC: 1.32142 (Simulation time: 0 hr 9 min 15 sec) 

ChampSim completed all CPUs

Region of Interest Statistics

CPU 0 cumulative IPC: 1.32142 instructions: 50000000 cycles: 37838035

SHEET
IPC : 1.32142

L1D TOTAL     ACCESS:   17641691  HIT:   17518560  MISS:     123131
L1D LOAD      ACCESS:    6665690  HIT:    6631474  MISS:      34216
L1D RFO       ACCESS:    4388777  HIT:    4346109  MISS:      42668
L1D PREFETCH  ACCESS:    6587224  HIT:    6540977  MISS:      46247
L1D WRITEBACK ACCESS:          0  HIT:          0  MISS:          0
L1D PREFETCH  REQUESTED:    6668105  ISSUED:    6600843  USEFUL:      17177  USELESS:      29253
L1D AVERAGE MISS LATENCY: 50.6113 cycles
L1D

SHEET
L1D-total_access : 17641691
L1D-total_hit : 17518560
L1D-total_miss : 123131
L1D-load_access : 6665690
L1D-load_hit : 6631474
L1D-load_miss : 34216
L1D-rfo_access : 4388777
L1D-rfo_hit : 4346109
L1D-rfo_miss : 42668
L1D-prefetch_access : 6587224
L1D-prefetch_hit : 6540977
L1D-prefetch_miss : 46247
L1D-writeback_access : 0
L1D-writeback_hit : 0
L1D-writeback_miss : 0
L1D-prefetch_requested : 6668105
L1D-prefetch_issued : 6600843
L1D-prefetch_useful : 17177
L1D-prefetch_useless : 29253
L1D-Avg_miss_latency : 50.6113
L1D-Morteza_fill_l2_prefetches : 0

L1I TOTAL     ACCESS:   18254814  HIT:   17387313  MISS:     867501
L1I LOAD      ACCESS:    8824139  HIT:    8639907  MISS:     184232
L1I RFO       ACCESS:          0  HIT:          0  MISS:          0
L1I PREFETCH  ACCESS:    9430675  HIT:    8747406  MISS:     683269
L1I WRITEBACK ACCESS:          0  HIT:          0  MISS:          0
L1I PREFETCH  REQUESTED:   10105492  ISSUED:   10017040  USEFUL:     459601  USELESS:     223680
L1I AVERAGE MISS LATENCY: 14.2562 cycles
L1I

SHEET
L1I-total_access : 18254814
L1I-total_hit : 17387313
L1I-total_miss : 867501
L1I-load_access : 8824139
L1I-load_hit : 8639907
L1I-load_miss : 184232
L1I-rfo_access : 0
L1I-rfo_hit : 0
L1I-rfo_miss : 0
L1I-prefetch_access : 9430675
L1I-prefetch_hit : 8747406
L1I-prefetch_miss : 683269
L1I-writeback_access : 0
L1I-writeback_hit : 0
L1I-writeback_miss : 0
L1I-prefetch_requested : 10105492
L1I-prefetch_issued : 10017040
L1I-prefetch_useful : 459601
L1I-prefetch_useless : 223680
L1I-Avg_miss_latency : 14.2562
L1I-Morteza_fill_l2_prefetches : 0

L2C TOTAL     ACCESS:    1522802  HIT:    1485161  MISS:      37641
L2C LOAD      ACCESS:     184360  HIT:     170610  MISS:      13750
L2C RFO       ACCESS:      42552  HIT:      39642  MISS:       2910
L2C PREFETCH  ACCESS:    1221681  HIT:    1200866  MISS:      20815
L2C WRITEBACK ACCESS:      74209  HIT:      74043  MISS:        166
L2C PREFETCH  REQUESTED:     870458  ISSUED:     870448  USEFUL:       2254  USELESS:      18988
L2C AVERAGE MISS LATENCY: 125.761 cycles
L2C

SHEET
L2C-total_access : 1522802
L2C-total_hit : 1485161
L2C-total_miss : 37641
L2C-load_access : 184360
L2C-load_hit : 170610
L2C-load_miss : 13750
L2C-rfo_access : 42552
L2C-rfo_hit : 39642
L2C-rfo_miss : 2910
L2C-prefetch_access : 1221681
L2C-prefetch_hit : 1200866
L2C-prefetch_miss : 20815
L2C-writeback_access : 74209
L2C-writeback_hit : 74043
L2C-writeback_miss : 166
L2C-prefetch_requested : 870458
L2C-prefetch_issued : 870448
L2C-prefetch_useful : 2254
L2C-prefetch_useless : 18988
L2C-Avg_miss_latency : 125.761
L2C-Morteza_fill_l2_prefetches : 460689

LLC TOTAL     ACCESS:     116640  HIT:      84459  MISS:      32181
LLC LOAD      ACCESS:      13750  HIT:       5014  MISS:       8736
LLC RFO       ACCESS:       2910  HIT:       1296  MISS:       1614
LLC PREFETCH  ACCESS:      81749  HIT:      60475  MISS:      21274
LLC WRITEBACK ACCESS:      18231  HIT:      17674  MISS:        557
LLC PREFETCH  REQUESTED:          0  ISSUED:          0  USEFUL:       2206  USELESS:      18906
LLC AVERAGE MISS LATENCY: 183.707 cycles
LLC

SHEET
LLC-total_access : 116640
LLC-total_hit : 84459
LLC-total_miss : 32181
LLC-load_access : 13750
LLC-load_hit : 5014
LLC-load_miss : 8736
LLC-rfo_access : 2910
LLC-rfo_hit : 1296
LLC-rfo_miss : 1614
LLC-prefetch_access : 81749
LLC-prefetch_hit : 60475
LLC-prefetch_miss : 21274
LLC-writeback_access : 18231
LLC-writeback_hit : 17674
LLC-writeback_miss : 557
LLC-prefetch_requested : 0
LLC-prefetch_issued : 0
LLC-prefetch_useful : 2206
LLC-prefetch_useless : 18906
LLC-Avg_miss_latency : 183.707
LLC-Morteza_fill_l2_prefetches : 48352

Major fault: 0 Minor fault: 2865



Printing Logs
statHeadFound: 1141345
statHeadMissing: 581528
statStreamBufferHit: 11108195
statPrefetchEntryFound: 4820093
statCompactorMatch: 11408959
statStreamTrackerLookup: 12831068
statRecord: 1422109
statGetPointer: 1722873
statEnqueuePrefetch: 19275324
statPrefetchQueueIsFull: 37739
StreamBufferHitRate: 0.865726
Regions' size: 3198
next_region_correct: 767466
next_region_wrong: 651427
next_region_correct_prediction: 0.540891
statStreamBufferLookups: 923836896
statL1iLookups: 154202592
statCompactorLookups: 461918448
morteza: start

SHEET
mana_table_access_counter : 1669732
mana_table_multiple_access_counter : 5756138
hobp_table_access_counter : 24336861
sab_access_counter : 15928288
srq_access_counter : 13032312

morteza: end
CPU 0 L1D next line prefetcher final stats

DRAM Statistics
 CHANNEL 0
 RQ ROW_BUFFER_HIT:       2620  ROW_BUFFER_MISS:      29004
 DBUS_CONGESTED:      15997
 WQ ROW_BUFFER_HIT:        722  ROW_BUFFER_MISS:      12788  FULL:          0

 AVG_CONGESTED_CYCLE: 4

CPU 0 Branch Prediction Accuracy: 93.9974% MPKI: 10.2447 Average ROB Occupancy at Mispredict: 39.3818

Branch types
NOT_BRANCH: 41466058 82.9321%
BRANCH_DIRECT_JUMP: 464313 0.928626%
BRANCH_INDIRECT: 32 6.4e-05%
BRANCH_CONDITIONAL: 7069453 14.1389%
BRANCH_DIRECT_CALL: 499587 0.999174%
BRANCH_INDIRECT_CALL: 342 0.000684%
BRANCH_RETURN: 499906 0.999812%
BRANCH_OTHER: 0 0%

