Initialize SIGNATURE TABLE
ST_SET: 1
ST_WAY: 256
ST_TAG_BIT: 16
ST_TAG_MASK: ffff

Initialize PATTERN TABLE
PT_SET: 512
PT_WAY: 4
SIG_DELTA_BIT: 7
C_SIG_BIT: 4
C_DELTA_BIT: 4

Initialize PREFETCH FILTER
FILTER_SET: 1024
MANA initialize 
tds: 2 tdm: 4
size MANA SINGLE: 74 KB
size MANA NULTIPLE: 43 KB
size HOBPT: 5 KB
size SRQ: 0.14502 KB
size SABs: 0.290039 KB
size prefetch queue: 0.453125 KB
total: 122.888 KB

*** ChampSim Multicore Out-of-Order Simulator ***

Warmup Instructions: 50000000
Simulation Instructions: 50000000
Number of CPUs: 1
LLC sets: 2048
LLC ways: 16
Off-chip DRAM Size: 4096 MB Channels: 1 Width: 64-bit Data Rate: 3200 MT/s

CPU 0 runs ../dpc3_traces/spec_gcc_002.champsimtrace.xz
CPU 0 L1D next line prefetcher
Heartbeat CPU 0 instructions: 10000002 cycles: 3572205 heartbeat IPC: 2.79939 cumulative IPC: 2.79939 (Simulation time: 0 hr 1 min 12 sec) 
Heartbeat CPU 0 instructions: 20000000 cycles: 7142678 heartbeat IPC: 2.80075 cumulative IPC: 2.80007 (Simulation time: 0 hr 2 min 20 sec) 
Heartbeat CPU 0 instructions: 30000000 cycles: 10810895 heartbeat IPC: 2.72612 cumulative IPC: 2.77498 (Simulation time: 0 hr 3 min 32 sec) 
Heartbeat CPU 0 instructions: 40000000 cycles: 14358164 heartbeat IPC: 2.81907 cumulative IPC: 2.78587 (Simulation time: 0 hr 4 min 40 sec) 
Heartbeat CPU 0 instructions: 50000002 cycles: 17851525 heartbeat IPC: 2.86257 cumulative IPC: 2.80088 (Simulation time: 0 hr 5 min 42 sec) 

Warmup complete CPU 0 instructions: 50000002 cycles: 17851525 (Simulation time: 0 hr 5 min 42 sec) 

Heartbeat CPU 0 instructions: 60000001 cycles: 56061406 heartbeat IPC: 0.261712 cumulative IPC: 0.261712 (Simulation time: 0 hr 8 min 9 sec) 
Heartbeat CPU 0 instructions: 70000001 cycles: 87747260 heartbeat IPC: 0.315598 cumulative IPC: 0.28614 (Simulation time: 0 hr 10 min 20 sec) 
Heartbeat CPU 0 instructions: 80000002 cycles: 135841004 heartbeat IPC: 0.207927 cumulative IPC: 0.25426 (Simulation time: 0 hr 13 min 0 sec) 
Heartbeat CPU 0 instructions: 90000001 cycles: 179580003 heartbeat IPC: 0.228629 cumulative IPC: 0.247328 (Simulation time: 0 hr 15 min 29 sec) 
Heartbeat CPU 0 instructions: 100000000 cycles: 209654726 heartbeat IPC: 0.332505 cumulative IPC: 0.260684 (Simulation time: 0 hr 17 min 27 sec) 
Finished CPU 0 instructions: 50000002 cycles: 191803209 cumulative IPC: 0.260684 (Simulation time: 0 hr 17 min 27 sec) 

ChampSim completed all CPUs

Region of Interest Statistics

CPU 0 cumulative IPC: 0.260684 instructions: 50000002 cycles: 191803209

SHEET
IPC : 0.260684

L1D TOTAL     ACCESS:   18332093  HIT:   13098349  MISS:    5233744
L1D LOAD      ACCESS:    6394211  HIT:    5344290  MISS:    1049921
L1D RFO       ACCESS:    7043311  HIT:    3442665  MISS:    3600646
L1D PREFETCH  ACCESS:    4894571  HIT:    4311394  MISS:     583177
L1D WRITEBACK ACCESS:          0  HIT:          0  MISS:          0
L1D PREFETCH  REQUESTED:    6414640  ISSUED:    6345548  USEFUL:     423325  USELESS:     160068
L1D AVERAGE MISS LATENCY: 329.07 cycles
L1D

SHEET
L1D-total_access : 18332093
L1D-total_hit : 13098349
L1D-total_miss : 5233744
L1D-load_access : 6394211
L1D-load_hit : 5344290
L1D-load_miss : 1049921
L1D-rfo_access : 7043311
L1D-rfo_hit : 3442665
L1D-rfo_miss : 3600646
L1D-prefetch_access : 4894571
L1D-prefetch_hit : 4311394
L1D-prefetch_miss : 583177
L1D-writeback_access : 0
L1D-writeback_hit : 0
L1D-writeback_miss : 0
L1D-prefetch_requested : 6414640
L1D-prefetch_issued : 6345548
L1D-prefetch_useful : 423325
L1D-prefetch_useless : 160068
L1D-Avg_miss_latency : 329.07
L1D-Morteza_fill_l2_prefetches : 0

L1I TOTAL     ACCESS:   15490275  HIT:   14658626  MISS:     831649
L1I LOAD      ACCESS:   12060958  HIT:   11856519  MISS:     204439
L1I RFO       ACCESS:          0  HIT:          0  MISS:          0
L1I PREFETCH  ACCESS:    3429317  HIT:    2802107  MISS:     627210
L1I WRITEBACK ACCESS:          0  HIT:          0  MISS:          0
L1I PREFETCH  REQUESTED:    3862812  ISSUED:    3727912  USEFUL:     426333  USELESS:     200831
L1I AVERAGE MISS LATENCY: 62.3474 cycles
L1I

SHEET
L1I-total_access : 15490275
L1I-total_hit : 14658626
L1I-total_miss : 831649
L1I-load_access : 12060958
L1I-load_hit : 11856519
L1I-load_miss : 204439
L1I-rfo_access : 0
L1I-rfo_hit : 0
L1I-rfo_miss : 0
L1I-prefetch_access : 3429317
L1I-prefetch_hit : 2802107
L1I-prefetch_miss : 627210
L1I-writeback_access : 0
L1I-writeback_hit : 0
L1I-writeback_miss : 0
L1I-prefetch_requested : 3862812
L1I-prefetch_issued : 3727912
L1I-prefetch_useful : 426333
L1I-prefetch_useless : 200831
L1I-Avg_miss_latency : 62.3474
L1I-Morteza_fill_l2_prefetches : 0

L2C TOTAL     ACCESS:   10166265  HIT:    4868629  MISS:    5297636
L2C LOAD      ACCESS:     393378  HIT:     188247  MISS:     205131
L2C RFO       ACCESS:    3599120  HIT:      12952  MISS:    3586168
L2C PREFETCH  ACCESS:    2448243  HIT:     941949  MISS:    1506294
L2C WRITEBACK ACCESS:    3725524  HIT:    3725481  MISS:         43
L2C PREFETCH  REQUESTED:    3129594  ISSUED:    3129572  USEFUL:      52733  USELESS:    1453784
L2C AVERAGE MISS LATENCY: 337.991 cycles
L2C

SHEET
L2C-total_access : 10166265
L2C-total_hit : 4868629
L2C-total_miss : 5297636
L2C-load_access : 393378
L2C-load_hit : 188247
L2C-load_miss : 205131
L2C-rfo_access : 3599120
L2C-rfo_hit : 12952
L2C-rfo_miss : 3586168
L2C-prefetch_access : 2448243
L2C-prefetch_hit : 941949
L2C-prefetch_miss : 1506294
L2C-writeback_access : 3725524
L2C-writeback_hit : 3725481
L2C-writeback_miss : 43
L2C-prefetch_requested : 3129594
L2C-prefetch_issued : 3129572
L2C-prefetch_useful : 52733
L2C-prefetch_useless : 1453784
L2C-Avg_miss_latency : 337.991
L2C-Morteza_fill_l2_prefetches : 273291

LLC TOTAL     ACCESS:    9986748  HIT:    6270356  MISS:    3716392
LLC LOAD      ACCESS:     204944  HIT:     126701  MISS:      78243
LLC RFO       ACCESS:    3586168  HIT:     670765  MISS:    2915403
LLC PREFETCH  ACCESS:    2528886  HIT:    1806140  MISS:     722746
LLC WRITEBACK ACCESS:    3666750  HIT:    3666750  MISS:          0
LLC PREFETCH  REQUESTED:          0  ISSUED:          0  USEFUL:     156858  USELESS:     561986
LLC AVERAGE MISS LATENCY: 460.043 cycles
LLC

SHEET
LLC-total_access : 9986748
LLC-total_hit : 6270356
LLC-total_miss : 3716392
LLC-load_access : 204944
LLC-load_hit : 126701
LLC-load_miss : 78243
LLC-rfo_access : 3586169
LLC-rfo_hit : 670765
LLC-rfo_miss : 2915404
LLC-prefetch_access : 2528886
LLC-prefetch_hit : 1806140
LLC-prefetch_miss : 722746
LLC-writeback_access : 3666750
LLC-writeback_hit : 3666750
LLC-writeback_miss : 0
LLC-prefetch_requested : 0
LLC-prefetch_issued : 0
LLC-prefetch_useful : 156858
LLC-prefetch_useless : 561986
LLC-Avg_miss_latency : 460.043
LLC-Morteza_fill_l2_prefetches : 1009063

Major fault: 0 Minor fault: 4245



Printing Logs
statHeadFound: 490267
statHeadMissing: 4494603
statStreamBufferHit: 8122463
statPrefetchEntryFound: 2324954
statCompactorMatch: 12213418
statStreamTrackerLookup: 13107333
statRecord: 893915
statGetPointer: 4984870
statEnqueuePrefetch: 7125153
statPrefetchQueueIsFull: 1534
StreamBufferHitRate: 0.619688
Regions' size: 1479
next_region_correct: 529150
next_region_wrong: 363268
next_region_correct_prediction: 0.59294
statStreamBufferLookups: 943727976
statL1iLookups: 57001224
statCompactorLookups: 471863988
morteza: start

SHEET
mana_table_access_counter : 1265950
mana_table_multiple_access_counter : 2447231
hobp_table_access_counter : 45785258
sab_access_counter : 10447417
srq_access_counter : 12234979

morteza: end
CPU 0 L1D next line prefetcher final stats

DRAM Statistics
 CHANNEL 0
 RQ ROW_BUFFER_HIT:     998399  ROW_BUFFER_MISS:    2716017
 DBUS_CONGESTED:    5403987
 WQ ROW_BUFFER_HIT:     923291  ROW_BUFFER_MISS:    2171603  FULL:          0

 AVG_CONGESTED_CYCLE: 6

CPU 0 Branch Prediction Accuracy: 99.5987% MPKI: 0.82446 Average ROB Occupancy at Mispredict: 121.231

Branch types
NOT_BRANCH: 39726807 79.4536%
BRANCH_DIRECT_JUMP: 391439 0.782878%
BRANCH_INDIRECT: 62076 0.124152%
BRANCH_CONDITIONAL: 8421541 16.8431%
BRANCH_DIRECT_CALL: 672962 1.34592%
BRANCH_INDIRECT_CALL: 26115 0.05223%
BRANCH_RETURN: 699082 1.39816%
BRANCH_OTHER: 0 0%

