Initialize SIGNATURE TABLE
ST_SET: 1
ST_WAY: 256
ST_TAG_BIT: 16
ST_TAG_MASK: ffff

Initialize PATTERN TABLE
PT_SET: 512
PT_WAY: 4
SIG_DELTA_BIT: 7
C_SIG_BIT: 4
C_DELTA_BIT: 4

Initialize PREFETCH FILTER
FILTER_SET: 1024
MANA initialize 
tds: 2 tdm: 2
size MANA SINGLE: 15.5 KB
size MANA NULTIPLE: 0 KB
size HOBPT: 0.703125 KB
size SRQ: 0.14502 KB
size SABs: 0.290039 KB
size prefetch queue: 0.453125 KB
total: 17.0913 KB

*** ChampSim Multicore Out-of-Order Simulator ***

Warmup Instructions: 50000000
Simulation Instructions: 50000000
Number of CPUs: 1
LLC sets: 2048
LLC ways: 16
Off-chip DRAM Size: 4096 MB Channels: 1 Width: 64-bit Data Rate: 3200 MT/s

CPU 0 runs /home/mbaradaran/ChampSim/dpc3_traces/client_008.champsimtrace.xz
CPU 0 L1D next line prefetcher
Heartbeat CPU 0 instructions: 10000001 cycles: 3753858 heartbeat IPC: 2.66393 cumulative IPC: 2.66393 (Simulation time: 0 hr 1 min 25 sec) 
Heartbeat CPU 0 instructions: 20000001 cycles: 7529519 heartbeat IPC: 2.64854 cumulative IPC: 2.65621 (Simulation time: 0 hr 2 min 52 sec) 
Heartbeat CPU 0 instructions: 30000000 cycles: 11257124 heartbeat IPC: 2.68269 cumulative IPC: 2.66498 (Simulation time: 0 hr 4 min 16 sec) 
Heartbeat CPU 0 instructions: 40000002 cycles: 15051152 heartbeat IPC: 2.63572 cumulative IPC: 2.6576 (Simulation time: 0 hr 5 min 43 sec) 
Heartbeat CPU 0 instructions: 50000003 cycles: 18843031 heartbeat IPC: 2.63722 cumulative IPC: 2.6535 (Simulation time: 0 hr 7 min 9 sec) 

Warmup complete CPU 0 instructions: 50000003 cycles: 18843031 (Simulation time: 0 hr 7 min 9 sec) 

Heartbeat CPU 0 instructions: 60000000 cycles: 27104018 heartbeat IPC: 1.21051 cumulative IPC: 1.21051 (Simulation time: 0 hr 8 min 38 sec) 
Heartbeat CPU 0 instructions: 70000000 cycles: 35077008 heartbeat IPC: 1.25423 cumulative IPC: 1.23198 (Simulation time: 0 hr 10 min 13 sec) 
Heartbeat CPU 0 instructions: 80000001 cycles: 44226985 heartbeat IPC: 1.0929 cumulative IPC: 1.18185 (Simulation time: 0 hr 11 min 33 sec) 
Heartbeat CPU 0 instructions: 90000001 cycles: 51634986 heartbeat IPC: 1.34989 cumulative IPC: 1.21981 (Simulation time: 0 hr 12 min 50 sec) 
Heartbeat CPU 0 instructions: 100000001 cycles: 59698286 heartbeat IPC: 1.24019 cumulative IPC: 1.22383 (Simulation time: 0 hr 14 min 9 sec) 
Finished CPU 0 instructions: 50000002 cycles: 40855256 cumulative IPC: 1.22383 (Simulation time: 0 hr 14 min 9 sec) 

ChampSim completed all CPUs

Region of Interest Statistics

CPU 0 cumulative IPC: 1.22383 instructions: 50000002 cycles: 40855256

SHEET
IPC : 1.22383

L1D TOTAL     ACCESS:   20519380  HIT:   18890751  MISS:    1628629
L1D LOAD      ACCESS:    8080094  HIT:    7280883  MISS:     799211
L1D RFO       ACCESS:    4816699  HIT:    4707158  MISS:     109541
L1D PREFETCH  ACCESS:    7622587  HIT:    6902710  MISS:     719877
L1D WRITEBACK ACCESS:          0  HIT:          0  MISS:          0
L1D PREFETCH  REQUESTED:    8149129  ISSUED:    7980671  USEFUL:     199951  USELESS:     519930
L1D AVERAGE MISS LATENCY: 32.8428 cycles
L1D

SHEET
L1D-total_access : 20519380
L1D-total_hit : 18890751
L1D-total_miss : 1628629
L1D-load_access : 8080094
L1D-load_hit : 7280883
L1D-load_miss : 799211
L1D-rfo_access : 4816699
L1D-rfo_hit : 4707158
L1D-rfo_miss : 109541
L1D-prefetch_access : 7622587
L1D-prefetch_hit : 6902710
L1D-prefetch_miss : 719877
L1D-writeback_access : 0
L1D-writeback_hit : 0
L1D-writeback_miss : 0
L1D-prefetch_requested : 8149129
L1D-prefetch_issued : 7980671
L1D-prefetch_useful : 199951
L1D-prefetch_useless : 519930
L1D-Avg_miss_latency : 32.8428
L1D-Morteza_fill_l2_prefetches : 0

L1I TOTAL     ACCESS:   16581996  HIT:   15363284  MISS:    1218712
L1I LOAD      ACCESS:    9712439  HIT:    9496385  MISS:     216054
L1I RFO       ACCESS:          0  HIT:          0  MISS:          0
L1I PREFETCH  ACCESS:    6869557  HIT:    5866899  MISS:    1002658
L1I WRITEBACK ACCESS:          0  HIT:          0  MISS:          0
L1I PREFETCH  REQUESTED:    7471845  ISSUED:    7319248  USEFUL:     631781  USELESS:     370891
L1I AVERAGE MISS LATENCY: 17.2122 cycles
L1I

SHEET
L1I-total_access : 16581996
L1I-total_hit : 15363284
L1I-total_miss : 1218712
L1I-load_access : 9712439
L1I-load_hit : 9496385
L1I-load_miss : 216054
L1I-rfo_access : 0
L1I-rfo_hit : 0
L1I-rfo_miss : 0
L1I-prefetch_access : 6869557
L1I-prefetch_hit : 5866899
L1I-prefetch_miss : 1002658
L1I-writeback_access : 0
L1I-writeback_hit : 0
L1I-writeback_miss : 0
L1I-prefetch_requested : 7471845
L1I-prefetch_issued : 7319248
L1I-prefetch_useful : 631781
L1I-prefetch_useless : 370891
L1I-Avg_miss_latency : 17.2122
L1I-Morteza_fill_l2_prefetches : 0

L2C TOTAL     ACCESS:    3957675  HIT:    3506929  MISS:     450746
L2C LOAD      ACCESS:     932769  HIT:     762269  MISS:     170500
L2C RFO       ACCESS:     104250  HIT:      18303  MISS:      85947
L2C PREFETCH  ACCESS:    2738666  HIT:    2544808  MISS:     193858
L2C WRITEBACK ACCESS:     181990  HIT:     181549  MISS:        441
L2C PREFETCH  REQUESTED:    3002596  ISSUED:    2991926  USEFUL:      19324  USELESS:     175603
L2C AVERAGE MISS LATENCY: 77.4953 cycles
L2C

SHEET
L2C-total_access : 3957675
L2C-total_hit : 3506929
L2C-total_miss : 450746
L2C-load_access : 932769
L2C-load_hit : 762269
L2C-load_miss : 170500
L2C-rfo_access : 104250
L2C-rfo_hit : 18303
L2C-rfo_miss : 85947
L2C-prefetch_access : 2738666
L2C-prefetch_hit : 2544808
L2C-prefetch_miss : 193858
L2C-writeback_access : 181990
L2C-writeback_hit : 181549
L2C-writeback_miss : 441
L2C-prefetch_requested : 3002596
L2C-prefetch_issued : 2991926
L2C-prefetch_useful : 19324
L2C-prefetch_useless : 175603
L2C-Avg_miss_latency : 77.4953
L2C-Morteza_fill_l2_prefetches : 941077

LLC TOTAL     ACCESS:    1455684  HIT:    1270752  MISS:     184932
LLC LOAD      ACCESS:     170387  HIT:     147346  MISS:      23041
LLC RFO       ACCESS:      85942  HIT:      15742  MISS:      70200
LLC PREFETCH  ACCESS:    1063481  HIT:     972144  MISS:      91337
LLC WRITEBACK ACCESS:     135874  HIT:     135520  MISS:        354
LLC PREFETCH  REQUESTED:          0  ISSUED:          0  USEFUL:      25398  USELESS:      72825
LLC AVERAGE MISS LATENCY: 168.874 cycles
LLC

SHEET
LLC-total_access : 1455684
LLC-total_hit : 1270752
LLC-total_miss : 184932
LLC-load_access : 170387
LLC-load_hit : 147346
LLC-load_miss : 23041
LLC-rfo_access : 85942
LLC-rfo_hit : 15742
LLC-rfo_miss : 70200
LLC-prefetch_access : 1063481
LLC-prefetch_hit : 972144
LLC-prefetch_miss : 91337
LLC-writeback_access : 135874
LLC-writeback_hit : 135520
LLC-writeback_miss : 354
LLC-prefetch_requested : 0
LLC-prefetch_issued : 0
LLC-prefetch_useful : 25398
LLC-prefetch_useless : 72825
LLC-Avg_miss_latency : 168.874
LLC-Morteza_fill_l2_prefetches : 824369

Major fault: 0 Minor fault: 5303



Printing Logs
statHeadFound: 739208
statHeadMissing: 793855
statStreamBufferHit: 12529866
statPrefetchEntryFound: 5419449
statCompactorMatch: 12482787
statStreamTrackerLookup: 14062929
statRecord: 1580142
statGetPointer: 1533063
statEnqueuePrefetch: 16377234
statPrefetchQueueIsFull: 10437
StreamBufferHitRate: 0.890986
Regions' size: 6175
next_region_correct: 1013425
next_region_wrong: 560524
next_region_correct_prediction: 0.643874
statStreamBufferLookups: 1012530888
statL1iLookups: 131017872
statCompactorLookups: 506265444
morteza: start

SHEET
mana_table_access_counter : 7010010
hobp_table_access_counter : 17882694
sab_access_counter : 17949315
srq_access_counter : 13321474

morteza: end
CPU 0 L1D next line prefetcher final stats

DRAM Statistics
 CHANNEL 0
 RQ ROW_BUFFER_HIT:      52328  ROW_BUFFER_MISS:     132236
 DBUS_CONGESTED:      99215
 WQ ROW_BUFFER_HIT:      24299  ROW_BUFFER_MISS:      66396  FULL:          0

 AVG_CONGESTED_CYCLE: 6

CPU 0 Branch Prediction Accuracy: 98.6482% MPKI: 3.1551 Average ROB Occupancy at Mispredict: 94.5525

Branch types
NOT_BRANCH: 38329598 76.6592%
BRANCH_DIRECT_JUMP: 510116 1.02023%
BRANCH_INDIRECT: 225730 0.45146%
BRANCH_CONDITIONAL: 8366762 16.7335%
BRANCH_DIRECT_CALL: 600748 1.2015%
BRANCH_INDIRECT_CALL: 682990 1.36598%
BRANCH_RETURN: 1283974 2.56795%
BRANCH_OTHER: 0 0%

