Initialize SIGNATURE TABLE
ST_SET: 1
ST_WAY: 256
ST_TAG_BIT: 16
ST_TAG_MASK: ffff

Initialize PATTERN TABLE
PT_SET: 512
PT_WAY: 4
SIG_DELTA_BIT: 7
C_SIG_BIT: 4
C_DELTA_BIT: 4

Initialize PREFETCH FILTER
FILTER_SET: 1024
MANA initialize 
tds: 2 tdm: 2
size MANA SINGLE: 15.5 KB
size MANA NULTIPLE: 0 KB
size HOBPT: 0.703125 KB
size SRQ: 0.14502 KB
size SABs: 0.290039 KB
size prefetch queue: 0.453125 KB
total: 17.0913 KB

*** ChampSim Multicore Out-of-Order Simulator ***

Warmup Instructions: 50000000
Simulation Instructions: 50000000
Number of CPUs: 1
LLC sets: 2048
LLC ways: 16
Off-chip DRAM Size: 4096 MB Channels: 1 Width: 64-bit Data Rate: 3200 MT/s

CPU 0 runs /home/mbaradaran/ChampSim/dpc3_traces/server_026.champsimtrace.xz
CPU 0 L1D next line prefetcher
Heartbeat CPU 0 instructions: 10000000 cycles: 3536917 heartbeat IPC: 2.82732 cumulative IPC: 2.82732 (Simulation time: 0 hr 1 min 31 sec) 
Heartbeat CPU 0 instructions: 20000002 cycles: 7079538 heartbeat IPC: 2.82277 cumulative IPC: 2.82504 (Simulation time: 0 hr 3 min 2 sec) 
Heartbeat CPU 0 instructions: 30000000 cycles: 10612131 heartbeat IPC: 2.83078 cumulative IPC: 2.82695 (Simulation time: 0 hr 4 min 30 sec) 
Heartbeat CPU 0 instructions: 40000003 cycles: 14153353 heartbeat IPC: 2.82388 cumulative IPC: 2.82619 (Simulation time: 0 hr 6 min 3 sec) 
Heartbeat CPU 0 instructions: 50000000 cycles: 17688365 heartbeat IPC: 2.82884 cumulative IPC: 2.82672 (Simulation time: 0 hr 7 min 29 sec) 

Warmup complete CPU 0 instructions: 50000004 cycles: 17688366 (Simulation time: 0 hr 7 min 29 sec) 

*** Reached end of trace for Core: 0 Repeating trace: /home/mbaradaran/ChampSim/dpc3_traces/server_026.champsimtrace.xz
Heartbeat CPU 0 instructions: 60000000 cycles: 25115150 heartbeat IPC: 1.34648 cumulative IPC: 1.34648 (Simulation time: 0 hr 8 min 49 sec) 
Heartbeat CPU 0 instructions: 70000003 cycles: 32441546 heartbeat IPC: 1.36493 cumulative IPC: 1.35564 (Simulation time: 0 hr 10 min 7 sec) 
Heartbeat CPU 0 instructions: 80000002 cycles: 39865668 heartbeat IPC: 1.34696 cumulative IPC: 1.35273 (Simulation time: 0 hr 11 min 33 sec) 
Heartbeat CPU 0 instructions: 90000002 cycles: 47204631 heartbeat IPC: 1.36259 cumulative IPC: 1.35518 (Simulation time: 0 hr 12 min 52 sec) 
Heartbeat CPU 0 instructions: 100000000 cycles: 54617197 heartbeat IPC: 1.34906 cumulative IPC: 1.35396 (Simulation time: 0 hr 14 min 22 sec) 
Finished CPU 0 instructions: 50000000 cycles: 36928832 cumulative IPC: 1.35396 (Simulation time: 0 hr 14 min 22 sec) 

ChampSim completed all CPUs

Region of Interest Statistics

CPU 0 cumulative IPC: 1.35396 instructions: 50000000 cycles: 36928832

SHEET
IPC : 1.35396

L1D TOTAL     ACCESS:   20338138  HIT:   18692532  MISS:    1645606
L1D LOAD      ACCESS:    7208623  HIT:    6479163  MISS:     729460
L1D RFO       ACCESS:    6257367  HIT:    5970011  MISS:     287356
L1D PREFETCH  ACCESS:    6872148  HIT:    6243358  MISS:     628790
L1D WRITEBACK ACCESS:          0  HIT:          0  MISS:          0
L1D PREFETCH  REQUESTED:    7255146  ISSUED:    7118481  USEFUL:     150906  USELESS:     477893
L1D AVERAGE MISS LATENCY: 23.6117 cycles
L1D

SHEET
L1D-total_access : 20338138
L1D-total_hit : 18692532
L1D-total_miss : 1645606
L1D-load_access : 7208623
L1D-load_hit : 6479163
L1D-load_miss : 729460
L1D-rfo_access : 6257367
L1D-rfo_hit : 5970011
L1D-rfo_miss : 287356
L1D-prefetch_access : 6872148
L1D-prefetch_hit : 6243358
L1D-prefetch_miss : 628790
L1D-writeback_access : 0
L1D-writeback_hit : 0
L1D-writeback_miss : 0
L1D-prefetch_requested : 7255146
L1D-prefetch_issued : 7118481
L1D-prefetch_useful : 150906
L1D-prefetch_useless : 477893
L1D-Avg_miss_latency : 23.6117
L1D-Morteza_fill_l2_prefetches : 0

L1I TOTAL     ACCESS:   19305933  HIT:   14480392  MISS:    4825541
L1I LOAD      ACCESS:    9257997  HIT:    8372792  MISS:     885205
L1I RFO       ACCESS:          0  HIT:          0  MISS:          0
L1I PREFETCH  ACCESS:   10047936  HIT:    6107600  MISS:    3940336
L1I WRITEBACK ACCESS:          0  HIT:          0  MISS:          0
L1I PREFETCH  REQUESTED:   11159528  ISSUED:   10887589  USEFUL:    2120908  USELESS:    1819434
L1I AVERAGE MISS LATENCY: 16.3867 cycles
L1I

SHEET
L1I-total_access : 19305933
L1I-total_hit : 14480392
L1I-total_miss : 4825541
L1I-load_access : 9257997
L1I-load_hit : 8372792
L1I-load_miss : 885205
L1I-rfo_access : 0
L1I-rfo_hit : 0
L1I-rfo_miss : 0
L1I-prefetch_access : 10047936
L1I-prefetch_hit : 6107600
L1I-prefetch_miss : 3940336
L1I-writeback_access : 0
L1I-writeback_hit : 0
L1I-writeback_miss : 0
L1I-prefetch_requested : 11159528
L1I-prefetch_issued : 10887589
L1I-prefetch_useful : 2120908
L1I-prefetch_useless : 1819434
L1I-Avg_miss_latency : 16.3867
L1I-Morteza_fill_l2_prefetches : 0

L2C TOTAL     ACCESS:    8706059  HIT:    7960220  MISS:     745839
L2C LOAD      ACCESS:    1361868  HIT:    1149723  MISS:     212145
L2C RFO       ACCESS:     284890  HIT:     187903  MISS:      96987
L2C PREFETCH  ACCESS:    6498144  HIT:    6066312  MISS:     431832
L2C WRITEBACK ACCESS:     561157  HIT:     556282  MISS:       4875
L2C PREFETCH  REQUESTED:    6767833  ISSUED:    6759825  USEFUL:      41290  USELESS:     389452
L2C AVERAGE MISS LATENCY: 38.9756 cycles
L2C

SHEET
L2C-total_access : 8706059
L2C-total_hit : 7960220
L2C-total_miss : 745839
L2C-load_access : 1361868
L2C-load_hit : 1149723
L2C-load_miss : 212145
L2C-rfo_access : 284890
L2C-rfo_hit : 187903
L2C-rfo_miss : 96987
L2C-prefetch_access : 6498144
L2C-prefetch_hit : 6066312
L2C-prefetch_miss : 431832
L2C-writeback_access : 561157
L2C-writeback_hit : 556282
L2C-writeback_miss : 4875
L2C-prefetch_requested : 6767833
L2C-prefetch_issued : 6759825
L2C-prefetch_useful : 41290
L2C-prefetch_useless : 389452
L2C-Avg_miss_latency : 38.9756
L2C-Morteza_fill_l2_prefetches : 1715588

LLC TOTAL     ACCESS:    2606771  HIT:    2573911  MISS:      32860
LLC LOAD      ACCESS:     212003  HIT:     208550  MISS:       3453
LLC RFO       ACCESS:      96944  HIT:      82804  MISS:      14140
LLC PREFETCH  ACCESS:    2132657  HIT:    2117570  MISS:      15087
LLC WRITEBACK ACCESS:     165167  HIT:     164987  MISS:        180
LLC PREFETCH  REQUESTED:          0  ISSUED:          0  USEFUL:       1091  USELESS:      13599
LLC AVERAGE MISS LATENCY: 188.244 cycles
LLC

SHEET
LLC-total_access : 2606771
LLC-total_hit : 2573911
LLC-total_miss : 32860
LLC-load_access : 212003
LLC-load_hit : 208550
LLC-load_miss : 3453
LLC-rfo_access : 96944
LLC-rfo_hit : 82804
LLC-rfo_miss : 14140
LLC-prefetch_access : 2132657
LLC-prefetch_hit : 2117570
LLC-prefetch_miss : 15087
LLC-writeback_access : 165167
LLC-writeback_hit : 164987
LLC-writeback_miss : 180
LLC-prefetch_requested : 0
LLC-prefetch_issued : 0
LLC-prefetch_useful : 1091
LLC-prefetch_useless : 13599
LLC-Avg_miss_latency : 188.244
LLC-Morteza_fill_l2_prefetches : 1710276

Major fault: 0 Minor fault: 2165



Printing Logs
statHeadFound: 1041271
statHeadMissing: 1299317
statStreamBufferHit: 11883937
statPrefetchEntryFound: 7225991
statCompactorMatch: 11698538
statStreamTrackerLookup: 14224525
statRecord: 2525987
statGetPointer: 2340588
statEnqueuePrefetch: 21664949
statPrefetchQueueIsFull: 57865
StreamBufferHitRate: 0.835454
Regions' size: 2026
next_region_correct: 1708902
next_region_wrong: 815041
next_region_correct_prediction: 0.677076
statStreamBufferLookups: 1024165800
statL1iLookups: 173319592
statCompactorLookups: 512082900
morteza: start

SHEET
mana_table_access_counter : 9809825
hobp_table_access_counter : 26750155
sab_access_counter : 19109928
srq_access_counter : 15407448

morteza: end
CPU 0 L1D next line prefetcher final stats

DRAM Statistics
 CHANNEL 0
 RQ ROW_BUFFER_HIT:      11788  ROW_BUFFER_MISS:      20885
 DBUS_CONGESTED:      22909
 WQ ROW_BUFFER_HIT:       1564  ROW_BUFFER_MISS:      14050  FULL:          0

 AVG_CONGESTED_CYCLE: 6

CPU 0 Branch Prediction Accuracy: 99.822% MPKI: 0.32584 Average ROB Occupancy at Mispredict: 149.726

Branch types
NOT_BRANCH: 40848537 81.6971%
BRANCH_DIRECT_JUMP: 522045 1.04409%
BRANCH_INDIRECT: 204034 0.408068%
BRANCH_CONDITIONAL: 6212953 12.4259%
BRANCH_DIRECT_CALL: 932389 1.86478%
BRANCH_INDIRECT_CALL: 173764 0.347528%
BRANCH_RETURN: 1106150 2.2123%
BRANCH_OTHER: 0 0%

