Initialize SIGNATURE TABLE
ST_SET: 1
ST_WAY: 256
ST_TAG_BIT: 16
ST_TAG_MASK: ffff

Initialize PATTERN TABLE
PT_SET: 512
PT_WAY: 4
SIG_DELTA_BIT: 7
C_SIG_BIT: 4
C_DELTA_BIT: 4

Initialize PREFETCH FILTER
FILTER_SET: 1024
MANA initialize 
tds: 2 tdm: 2
size MANA SINGLE: 15.5 KB
size MANA NULTIPLE: 0 KB
size HOBPT: 0.703125 KB
size SRQ: 0.14502 KB
size SABs: 0.290039 KB
size prefetch queue: 0.453125 KB
total: 17.0913 KB

*** ChampSim Multicore Out-of-Order Simulator ***

Warmup Instructions: 50000000
Simulation Instructions: 50000000
Number of CPUs: 1
LLC sets: 2048
LLC ways: 16
Off-chip DRAM Size: 4096 MB Channels: 1 Width: 64-bit Data Rate: 3200 MT/s

CPU 0 runs /home/mbaradaran/ChampSim/dpc3_traces/server_038.champsimtrace.xz
CPU 0 L1D next line prefetcher
Heartbeat CPU 0 instructions: 10000001 cycles: 3325764 heartbeat IPC: 3.00683 cumulative IPC: 3.00683 (Simulation time: 0 hr 1 min 28 sec) 
Heartbeat CPU 0 instructions: 20000003 cycles: 6655124 heartbeat IPC: 3.00358 cumulative IPC: 3.0052 (Simulation time: 0 hr 2 min 52 sec) 
Heartbeat CPU 0 instructions: 30000003 cycles: 9979992 heartbeat IPC: 3.00764 cumulative IPC: 3.00601 (Simulation time: 0 hr 4 min 21 sec) 
Heartbeat CPU 0 instructions: 40000001 cycles: 13309242 heartbeat IPC: 3.00368 cumulative IPC: 3.00543 (Simulation time: 0 hr 5 min 47 sec) 
Heartbeat CPU 0 instructions: 50000001 cycles: 16637197 heartbeat IPC: 3.00485 cumulative IPC: 3.00531 (Simulation time: 0 hr 7 min 8 sec) 

Warmup complete CPU 0 instructions: 50000001 cycles: 16637197 (Simulation time: 0 hr 7 min 8 sec) 

Heartbeat CPU 0 instructions: 60000002 cycles: 23098584 heartbeat IPC: 1.54766 cumulative IPC: 1.54766 (Simulation time: 0 hr 8 min 31 sec) 
Heartbeat CPU 0 instructions: 70000001 cycles: 29523036 heartbeat IPC: 1.55655 cumulative IPC: 1.55209 (Simulation time: 0 hr 9 min 52 sec) 
Heartbeat CPU 0 instructions: 80000000 cycles: 35961752 heartbeat IPC: 1.5531 cumulative IPC: 1.55243 (Simulation time: 0 hr 11 min 15 sec) 
Heartbeat CPU 0 instructions: 90000001 cycles: 42406255 heartbeat IPC: 1.55171 cumulative IPC: 1.55225 (Simulation time: 0 hr 12 min 33 sec) 
*** Reached end of trace for Core: 0 Repeating trace: /home/mbaradaran/ChampSim/dpc3_traces/server_038.champsimtrace.xz
Heartbeat CPU 0 instructions: 100000002 cycles: 48863287 heartbeat IPC: 1.5487 cumulative IPC: 1.55154 (Simulation time: 0 hr 13 min 50 sec) 
Finished CPU 0 instructions: 50000001 cycles: 32226090 cumulative IPC: 1.55154 (Simulation time: 0 hr 13 min 50 sec) 

ChampSim completed all CPUs

Region of Interest Statistics

CPU 0 cumulative IPC: 1.55154 instructions: 50000001 cycles: 32226090

SHEET
IPC : 1.55154

L1D TOTAL     ACCESS:   18808259  HIT:   17825415  MISS:     982844
L1D LOAD      ACCESS:    6416203  HIT:    5923883  MISS:     492320
L1D RFO       ACCESS:    6211064  HIT:    6146209  MISS:      64855
L1D PREFETCH  ACCESS:    6180992  HIT:    5755323  MISS:     425669
L1D WRITEBACK ACCESS:          0  HIT:          0  MISS:          0
L1D PREFETCH  REQUESTED:    6453052  ISSUED:    6301453  USEFUL:     118588  USELESS:     307084
L1D AVERAGE MISS LATENCY: 29.2518 cycles
L1D

SHEET
L1D-total_access : 18808259
L1D-total_hit : 17825415
L1D-total_miss : 982844
L1D-load_access : 6416203
L1D-load_hit : 5923883
L1D-load_miss : 492320
L1D-rfo_access : 6211064
L1D-rfo_hit : 6146209
L1D-rfo_miss : 64855
L1D-prefetch_access : 6180992
L1D-prefetch_hit : 5755323
L1D-prefetch_miss : 425669
L1D-writeback_access : 0
L1D-writeback_hit : 0
L1D-writeback_miss : 0
L1D-prefetch_requested : 6453052
L1D-prefetch_issued : 6301453
L1D-prefetch_useful : 118588
L1D-prefetch_useless : 307084
L1D-Avg_miss_latency : 29.2518
L1D-Morteza_fill_l2_prefetches : 0

L1I TOTAL     ACCESS:   19077059  HIT:   13831836  MISS:    5245223
L1I LOAD      ACCESS:    9260828  HIT:    8585464  MISS:     675364
L1I RFO       ACCESS:          0  HIT:          0  MISS:          0
L1I PREFETCH  ACCESS:    9816231  HIT:    5246372  MISS:    4569859
L1I WRITEBACK ACCESS:          0  HIT:          0  MISS:          0
L1I PREFETCH  REQUESTED:   10570693  ISSUED:   10476396  USEFUL:    3478768  USELESS:    1091091
L1I AVERAGE MISS LATENCY: 14.4352 cycles
L1I

SHEET
L1I-total_access : 19077059
L1I-total_hit : 13831836
L1I-total_miss : 5245223
L1I-load_access : 9260828
L1I-load_hit : 8585464
L1I-load_miss : 675364
L1I-rfo_access : 0
L1I-rfo_hit : 0
L1I-rfo_miss : 0
L1I-prefetch_access : 9816231
L1I-prefetch_hit : 5246372
L1I-prefetch_miss : 4569859
L1I-writeback_access : 0
L1I-writeback_hit : 0
L1I-writeback_miss : 0
L1I-prefetch_requested : 10570693
L1I-prefetch_issued : 10476396
L1I-prefetch_useful : 3478768
L1I-prefetch_useless : 1091091
L1I-Avg_miss_latency : 14.4352
L1I-Morteza_fill_l2_prefetches : 0

L2C TOTAL     ACCESS:    9258173  HIT:    8940768  MISS:     317405
L2C LOAD      ACCESS:     956262  HIT:     813376  MISS:     142886
L2C RFO       ACCESS:      64584  HIT:      36565  MISS:      28019
L2C PREFETCH  ACCESS:    7945574  HIT:    7799821  MISS:     145753
L2C WRITEBACK ACCESS:     291753  HIT:     291006  MISS:        747
L2C PREFETCH  REQUESTED:    7877826  ISSUED:    7842104  USEFUL:       6424  USELESS:     139153
L2C AVERAGE MISS LATENCY: 45.0152 cycles
L2C

SHEET
L2C-total_access : 9258173
L2C-total_hit : 8940768
L2C-total_miss : 317405
L2C-load_access : 956262
L2C-load_hit : 813376
L2C-load_miss : 142886
L2C-rfo_access : 64584
L2C-rfo_hit : 36565
L2C-rfo_miss : 28019
L2C-prefetch_access : 7945574
L2C-prefetch_hit : 7799821
L2C-prefetch_miss : 145753
L2C-writeback_access : 291753
L2C-writeback_hit : 291006
L2C-writeback_miss : 747
L2C-prefetch_requested : 7877826
L2C-prefetch_issued : 7842104
L2C-prefetch_useful : 6424
L2C-prefetch_useless : 139153
L2C-Avg_miss_latency : 45.0152
L2C-Morteza_fill_l2_prefetches : 2763558

LLC TOTAL     ACCESS:    1721592  HIT:    1674039  MISS:      47553
LLC LOAD      ACCESS:     142858  HIT:     130219  MISS:      12639
LLC RFO       ACCESS:      28019  HIT:      23280  MISS:       4739
LLC PREFETCH  ACCESS:    1405499  HIT:    1375724  MISS:      29775
LLC WRITEBACK ACCESS:     145216  HIT:     144816  MISS:        400
LLC PREFETCH  REQUESTED:          0  ISSUED:          0  USEFUL:       3237  USELESS:      25954
LLC AVERAGE MISS LATENCY: 165.872 cycles
LLC

SHEET
LLC-total_access : 1721592
LLC-total_hit : 1674039
LLC-total_miss : 47553
LLC-load_access : 142858
LLC-load_hit : 130219
LLC-load_miss : 12639
LLC-rfo_access : 28019
LLC-rfo_hit : 23280
LLC-rfo_miss : 4739
LLC-prefetch_access : 1405499
LLC-prefetch_hit : 1375724
LLC-prefetch_miss : 29775
LLC-writeback_access : 145216
LLC-writeback_hit : 144816
LLC-writeback_miss : 400
LLC-prefetch_requested : 0
LLC-prefetch_issued : 0
LLC-prefetch_useful : 3237
LLC-prefetch_useless : 25954
LLC-Avg_miss_latency : 165.872
LLC-Morteza_fill_l2_prefetches : 1249375

Major fault: 0 Minor fault: 5526



Printing Logs
statHeadFound: 737010
statHeadMissing: 401545
statStreamBufferHit: 13419199
statPrefetchEntryFound: 6661944
statCompactorMatch: 11311916
statStreamTrackerLookup: 14557754
statRecord: 3245838
statGetPointer: 1138555
statEnqueuePrefetch: 20944729
statPrefetchQueueIsFull: 648
StreamBufferHitRate: 0.92179
Regions' size: 881
next_region_correct: 2584769
next_region_wrong: 660170
next_region_correct_prediction: 0.796554
statStreamBufferLookups: 1048158288
statL1iLookups: 167557832
statCompactorLookups: 524079144
morteza: start

SHEET
mana_table_access_counter : 9908412
hobp_table_access_counter : 24200124
sab_access_counter : 20081143
srq_access_counter : 16735041

morteza: end
CPU 0 L1D next line prefetcher final stats

DRAM Statistics
 CHANNEL 0
 RQ ROW_BUFFER_HIT:       7457  ROW_BUFFER_MISS:      39692
 DBUS_CONGESTED:      19640
 WQ ROW_BUFFER_HIT:       1062  ROW_BUFFER_MISS:      10975  FULL:          0

 AVG_CONGESTED_CYCLE: 4

CPU 0 Branch Prediction Accuracy: 99.9279% MPKI: 0.12968 Average ROB Occupancy at Mispredict: 169.568

Branch types
NOT_BRANCH: 41006286 82.0126%
BRANCH_DIRECT_JUMP: 541914 1.08383%
BRANCH_INDIRECT: 59690 0.11938%
BRANCH_CONDITIONAL: 5915840 11.8317%
BRANCH_DIRECT_CALL: 1003587 2.00717%
BRANCH_INDIRECT_CALL: 234499 0.468998%
BRANCH_RETURN: 1238071 2.47614%
BRANCH_OTHER: 0 0%

