Initialize SIGNATURE TABLE
ST_SET: 1
ST_WAY: 256
ST_TAG_BIT: 16
ST_TAG_MASK: ffff

Initialize PATTERN TABLE
PT_SET: 512
PT_WAY: 4
SIG_DELTA_BIT: 7
C_SIG_BIT: 4
C_DELTA_BIT: 4

Initialize PREFETCH FILTER
FILTER_SET: 1024
MANA initialize 
tds: 2 tdm: 2
size MANA SINGLE: 15.5 KB
size MANA NULTIPLE: 0 KB
size HOBPT: 0.703125 KB
size SRQ: 0.14502 KB
size SABs: 0.290039 KB
size prefetch queue: 0.453125 KB
total: 17.0913 KB

*** ChampSim Multicore Out-of-Order Simulator ***

Warmup Instructions: 50000000
Simulation Instructions: 50000000
Number of CPUs: 1
LLC sets: 2048
LLC ways: 16
Off-chip DRAM Size: 4096 MB Channels: 1 Width: 64-bit Data Rate: 3200 MT/s

CPU 0 runs /home/mbaradaran/ChampSim/dpc3_traces/server_016.champsimtrace.xz
CPU 0 L1D next line prefetcher
Heartbeat CPU 0 instructions: 10000000 cycles: 3507081 heartbeat IPC: 2.85137 cumulative IPC: 2.85137 (Simulation time: 0 hr 1 min 29 sec) 
Heartbeat CPU 0 instructions: 20000000 cycles: 7013806 heartbeat IPC: 2.85166 cumulative IPC: 2.85152 (Simulation time: 0 hr 2 min 50 sec) 
Heartbeat CPU 0 instructions: 30000001 cycles: 10516487 heartbeat IPC: 2.85496 cumulative IPC: 2.85266 (Simulation time: 0 hr 4 min 14 sec) 
Heartbeat CPU 0 instructions: 40000000 cycles: 13816825 heartbeat IPC: 3.02999 cumulative IPC: 2.89502 (Simulation time: 0 hr 4 min 59 sec) 
Heartbeat CPU 0 instructions: 50000002 cycles: 17052290 heartbeat IPC: 3.09075 cumulative IPC: 2.93216 (Simulation time: 0 hr 5 min 29 sec) 

Warmup complete CPU 0 instructions: 50000002 cycles: 17052290 (Simulation time: 0 hr 5 min 29 sec) 

Heartbeat CPU 0 instructions: 60000001 cycles: 25064075 heartbeat IPC: 1.24816 cumulative IPC: 1.24816 (Simulation time: 0 hr 6 min 4 sec) 
Heartbeat CPU 0 instructions: 70000001 cycles: 32248125 heartbeat IPC: 1.39197 cumulative IPC: 1.31615 (Simulation time: 0 hr 7 min 18 sec) 
Heartbeat CPU 0 instructions: 80000000 cycles: 39554417 heartbeat IPC: 1.36868 cumulative IPC: 1.33321 (Simulation time: 0 hr 8 min 35 sec) 
Heartbeat CPU 0 instructions: 90000000 cycles: 46640930 heartbeat IPC: 1.41113 cumulative IPC: 1.35187 (Simulation time: 0 hr 9 min 51 sec) 
Heartbeat CPU 0 instructions: 100000000 cycles: 53868554 heartbeat IPC: 1.38358 cumulative IPC: 1.3581 (Simulation time: 0 hr 11 min 9 sec) 
Finished CPU 0 instructions: 50000001 cycles: 36816265 cumulative IPC: 1.3581 (Simulation time: 0 hr 11 min 9 sec) 

ChampSim completed all CPUs

Region of Interest Statistics

CPU 0 cumulative IPC: 1.3581 instructions: 50000001 cycles: 36816265

SHEET
IPC : 1.3581

L1D TOTAL     ACCESS:   18386916  HIT:   17119328  MISS:    1267588
L1D LOAD      ACCESS:    6731318  HIT:    6159492  MISS:     571826
L1D RFO       ACCESS:    5202322  HIT:    4980105  MISS:     222217
L1D PREFETCH  ACCESS:    6453276  HIT:    5979731  MISS:     473545
L1D WRITEBACK ACCESS:          0  HIT:          0  MISS:          0
L1D PREFETCH  REQUESTED:    6773233  ISSUED:    6672106  USEFUL:     114372  USELESS:     359191
L1D AVERAGE MISS LATENCY: 22.9938 cycles
L1D

SHEET
L1D-total_access : 18386916
L1D-total_hit : 17119328
L1D-total_miss : 1267588
L1D-load_access : 6731318
L1D-load_hit : 6159492
L1D-load_miss : 571826
L1D-rfo_access : 5202322
L1D-rfo_hit : 4980105
L1D-rfo_miss : 222217
L1D-prefetch_access : 6453276
L1D-prefetch_hit : 5979731
L1D-prefetch_miss : 473545
L1D-writeback_access : 0
L1D-writeback_hit : 0
L1D-writeback_miss : 0
L1D-prefetch_requested : 6773233
L1D-prefetch_issued : 6672106
L1D-prefetch_useful : 114372
L1D-prefetch_useless : 359191
L1D-Avg_miss_latency : 22.9938
L1D-Morteza_fill_l2_prefetches : 0

L1I TOTAL     ACCESS:   17549747  HIT:   13908309  MISS:    3641438
L1I LOAD      ACCESS:    9707957  HIT:    9051177  MISS:     656780
L1I RFO       ACCESS:          0  HIT:          0  MISS:          0
L1I PREFETCH  ACCESS:    7841790  HIT:    4857132  MISS:    2984658
L1I WRITEBACK ACCESS:          0  HIT:          0  MISS:          0
L1I PREFETCH  REQUESTED:    8709891  ISSUED:    8522572  USEFUL:    1640723  USELESS:    1343939
L1I AVERAGE MISS LATENCY: 16.2352 cycles
L1I

SHEET
L1I-total_access : 17549747
L1I-total_hit : 13908309
L1I-total_miss : 3641438
L1I-load_access : 9707957
L1I-load_hit : 9051177
L1I-load_miss : 656780
L1I-rfo_access : 0
L1I-rfo_hit : 0
L1I-rfo_miss : 0
L1I-prefetch_access : 7841790
L1I-prefetch_hit : 4857132
L1I-prefetch_miss : 2984658
L1I-writeback_access : 0
L1I-writeback_hit : 0
L1I-writeback_miss : 0
L1I-prefetch_requested : 8709891
L1I-prefetch_issued : 8522572
L1I-prefetch_useful : 1640723
L1I-prefetch_useless : 1343939
L1I-Avg_miss_latency : 16.2352
L1I-Morteza_fill_l2_prefetches : 0

L2C TOTAL     ACCESS:    6622588  HIT:    6125849  MISS:     496739
L2C LOAD      ACCESS:    1025408  HIT:     888160  MISS:     137248
L2C RFO       ACCESS:     220535  HIT:     159838  MISS:      60697
L2C PREFETCH  ACCESS:    4948441  HIT:    4651505  MISS:     296936
L2C WRITEBACK ACCESS:     428204  HIT:     426346  MISS:       1858
L2C PREFETCH  REQUESTED:    5174807  ISSUED:    5167600  USEFUL:      30297  USELESS:     266180
L2C AVERAGE MISS LATENCY: 42.0523 cycles
L2C

SHEET
L2C-total_access : 6622588
L2C-total_hit : 6125849
L2C-total_miss : 496739
L2C-load_access : 1025408
L2C-load_hit : 888160
L2C-load_miss : 137248
L2C-rfo_access : 220535
L2C-rfo_hit : 159838
L2C-rfo_miss : 60697
L2C-prefetch_access : 4948441
L2C-prefetch_hit : 4651505
L2C-prefetch_miss : 296936
L2C-writeback_access : 428204
L2C-writeback_hit : 426346
L2C-writeback_miss : 1858
L2C-prefetch_requested : 5174807
L2C-prefetch_issued : 5167600
L2C-prefetch_useful : 30297
L2C-prefetch_useless : 266180
L2C-Avg_miss_latency : 42.0523
L2C-Morteza_fill_l2_prefetches : 1321229

LLC TOTAL     ACCESS:    1894280  HIT:    1858598  MISS:      35682
LLC LOAD      ACCESS:     137133  HIT:     132843  MISS:       4290
LLC RFO       ACCESS:      60697  HIT:      47231  MISS:      13466
LLC PREFETCH  ACCESS:    1597505  HIT:    1579720  MISS:      17785
LLC WRITEBACK ACCESS:      98945  HIT:      98804  MISS:        141
LLC PREFETCH  REQUESTED:          0  ISSUED:          0  USEFUL:       1820  USELESS:      15594
LLC AVERAGE MISS LATENCY: 177.45 cycles
LLC

SHEET
LLC-total_access : 1894280
LLC-total_hit : 1858598
LLC-total_miss : 35682
LLC-load_access : 137133
LLC-load_hit : 132843
LLC-load_miss : 4290
LLC-rfo_access : 60697
LLC-rfo_hit : 47231
LLC-rfo_miss : 13466
LLC-prefetch_access : 1597505
LLC-prefetch_hit : 1579720
LLC-prefetch_miss : 17785
LLC-writeback_access : 98945
LLC-writeback_hit : 98804
LLC-writeback_miss : 141
LLC-prefetch_requested : 0
LLC-prefetch_issued : 0
LLC-prefetch_useful : 1820
LLC-prefetch_useless : 15594
LLC-Avg_miss_latency : 177.45
LLC-Morteza_fill_l2_prefetches : 1303704

Major fault: 0 Minor fault: 2365



Printing Logs
statHeadFound: 717852
statHeadMissing: 1052616
statStreamBufferHit: 12991740
statPrefetchEntryFound: 5025181
statCompactorMatch: 13032610
statStreamTrackerLookup: 14762208
statRecord: 1729598
statGetPointer: 1770468
statEnqueuePrefetch: 15139236
statPrefetchQueueIsFull: 30408
StreamBufferHitRate: 0.880068
Regions' size: 2181
next_region_correct: 1167473
next_region_wrong: 559926
next_region_correct_prediction: 0.675856
statStreamBufferLookups: 1062878976
statL1iLookups: 121113888
statCompactorLookups: 531439488
morteza: start

SHEET
mana_table_access_counter : 6785169
hobp_table_access_counter : 19055853
sab_access_counter : 18016921
srq_access_counter : 13309110

morteza: end
CPU 0 L1D next line prefetcher final stats

DRAM Statistics
 CHANNEL 0
 RQ ROW_BUFFER_HIT:      11367  ROW_BUFFER_MISS:      24173
 DBUS_CONGESTED:      23441
 WQ ROW_BUFFER_HIT:       1634  ROW_BUFFER_MISS:      14464  FULL:          0

 AVG_CONGESTED_CYCLE: 6

CPU 0 Branch Prediction Accuracy: 99.7225% MPKI: 0.50376 Average ROB Occupancy at Mispredict: 112.055

Branch types
NOT_BRANCH: 40923882 81.8478%
BRANCH_DIRECT_JUMP: 487045 0.97409%
BRANCH_INDIRECT: 169158 0.338316%
BRANCH_CONDITIONAL: 6640823 13.2816%
BRANCH_DIRECT_CALL: 755586 1.51117%
BRANCH_INDIRECT_CALL: 133962 0.267924%
BRANCH_RETURN: 889566 1.77913%
BRANCH_OTHER: 0 0%

