Initialize SIGNATURE TABLE
ST_SET: 1
ST_WAY: 256
ST_TAG_BIT: 16
ST_TAG_MASK: ffff

Initialize PATTERN TABLE
PT_SET: 512
PT_WAY: 4
SIG_DELTA_BIT: 7
C_SIG_BIT: 4
C_DELTA_BIT: 4

Initialize PREFETCH FILTER
FILTER_SET: 1024
MANA initialize 
tds: 2 tdm: 2
size MANA SINGLE: 15.5 KB
size MANA NULTIPLE: 0 KB
size HOBPT: 0.703125 KB
size SRQ: 0.14502 KB
size SABs: 0.290039 KB
size prefetch queue: 0.453125 KB
total: 17.0913 KB

*** ChampSim Multicore Out-of-Order Simulator ***

Warmup Instructions: 50000000
Simulation Instructions: 50000000
Number of CPUs: 1
LLC sets: 2048
LLC ways: 16
Off-chip DRAM Size: 4096 MB Channels: 1 Width: 64-bit Data Rate: 3200 MT/s

CPU 0 runs /home/mbaradaran/ChampSim/dpc3_traces/server_028.champsimtrace.xz
CPU 0 L1D next line prefetcher
Heartbeat CPU 0 instructions: 10000001 cycles: 3508205 heartbeat IPC: 2.85046 cumulative IPC: 2.85046 (Simulation time: 0 hr 1 min 25 sec) 
Heartbeat CPU 0 instructions: 20000002 cycles: 7016848 heartbeat IPC: 2.85011 cumulative IPC: 2.85028 (Simulation time: 0 hr 2 min 49 sec) 
Heartbeat CPU 0 instructions: 30000001 cycles: 10522544 heartbeat IPC: 2.8525 cumulative IPC: 2.85102 (Simulation time: 0 hr 4 min 12 sec) 
Heartbeat CPU 0 instructions: 40000002 cycles: 14035112 heartbeat IPC: 2.84692 cumulative IPC: 2.85 (Simulation time: 0 hr 5 min 37 sec) 
Heartbeat CPU 0 instructions: 50000001 cycles: 17543502 heartbeat IPC: 2.85031 cumulative IPC: 2.85006 (Simulation time: 0 hr 7 min 4 sec) 

Warmup complete CPU 0 instructions: 50000001 cycles: 17543502 (Simulation time: 0 hr 7 min 4 sec) 

Heartbeat CPU 0 instructions: 60000000 cycles: 25420817 heartbeat IPC: 1.26947 cumulative IPC: 1.26947 (Simulation time: 0 hr 8 min 26 sec) 
Heartbeat CPU 0 instructions: 70000000 cycles: 33274266 heartbeat IPC: 1.27333 cumulative IPC: 1.27139 (Simulation time: 0 hr 9 min 52 sec) 
Heartbeat CPU 0 instructions: 80000000 cycles: 41133023 heartbeat IPC: 1.27247 cumulative IPC: 1.27175 (Simulation time: 0 hr 11 min 16 sec) 
*** Reached end of trace for Core: 0 Repeating trace: /home/mbaradaran/ChampSim/dpc3_traces/server_028.champsimtrace.xz
Heartbeat CPU 0 instructions: 90000000 cycles: 48967233 heartbeat IPC: 1.27645 cumulative IPC: 1.27292 (Simulation time: 0 hr 12 min 40 sec) 
Heartbeat CPU 0 instructions: 100000003 cycles: 56774536 heartbeat IPC: 1.28085 cumulative IPC: 1.2745 (Simulation time: 0 hr 14 min 1 sec) 
Finished CPU 0 instructions: 50000002 cycles: 39231034 cumulative IPC: 1.2745 (Simulation time: 0 hr 14 min 1 sec) 

ChampSim completed all CPUs

Region of Interest Statistics

CPU 0 cumulative IPC: 1.2745 instructions: 50000002 cycles: 39231034

SHEET
IPC : 1.2745

L1D TOTAL     ACCESS:   19482005  HIT:   17408091  MISS:    2073914
L1D LOAD      ACCESS:    6932353  HIT:    5884737  MISS:    1047616
L1D RFO       ACCESS:    6117612  HIT:    5833749  MISS:     283863
L1D PREFETCH  ACCESS:    6432040  HIT:    5689605  MISS:     742435
L1D WRITEBACK ACCESS:          0  HIT:          0  MISS:          0
L1D PREFETCH  REQUESTED:    6989701  ISSUED:    6892019  USEFUL:     175823  USELESS:     566612
L1D AVERAGE MISS LATENCY: 21.1658 cycles
L1D

SHEET
L1D-total_access : 19482005
L1D-total_hit : 17408091
L1D-total_miss : 2073914
L1D-load_access : 6932353
L1D-load_hit : 5884737
L1D-load_miss : 1047616
L1D-rfo_access : 6117612
L1D-rfo_hit : 5833749
L1D-rfo_miss : 283863
L1D-prefetch_access : 6432040
L1D-prefetch_hit : 5689605
L1D-prefetch_miss : 742435
L1D-writeback_access : 0
L1D-writeback_hit : 0
L1D-writeback_miss : 0
L1D-prefetch_requested : 6989701
L1D-prefetch_issued : 6892019
L1D-prefetch_useful : 175823
L1D-prefetch_useless : 566612
L1D-Avg_miss_latency : 21.1658
L1D-Morteza_fill_l2_prefetches : 0

L1I TOTAL     ACCESS:   19422475  HIT:   14532571  MISS:    4889904
L1I LOAD      ACCESS:    9540465  HIT:    8675662  MISS:     864803
L1I RFO       ACCESS:          0  HIT:          0  MISS:          0
L1I PREFETCH  ACCESS:    9882010  HIT:    5856909  MISS:    4025101
L1I WRITEBACK ACCESS:          0  HIT:          0  MISS:          0
L1I PREFETCH  REQUESTED:   10996580  ISSUED:   10773463  USEFUL:    2279889  USELESS:    1745204
L1I AVERAGE MISS LATENCY: 15.8923 cycles
L1I

SHEET
L1I-total_access : 19422475
L1I-total_hit : 14532571
L1I-total_miss : 4889904
L1I-load_access : 9540465
L1I-load_hit : 8675662
L1I-load_miss : 864803
L1I-rfo_access : 0
L1I-rfo_hit : 0
L1I-rfo_miss : 0
L1I-prefetch_access : 9882010
L1I-prefetch_hit : 5856909
L1I-prefetch_miss : 4025101
L1I-writeback_access : 0
L1I-writeback_hit : 0
L1I-writeback_miss : 0
L1I-prefetch_requested : 10996580
L1I-prefetch_issued : 10773463
L1I-prefetch_useful : 2279889
L1I-prefetch_useless : 1745204
L1I-Avg_miss_latency : 15.8923
L1I-Morteza_fill_l2_prefetches : 0

L2C TOTAL     ACCESS:    9633865  HIT:    9016254  MISS:     617611
L2C LOAD      ACCESS:    1539720  HIT:    1350287  MISS:     189433
L2C RFO       ACCESS:     281775  HIT:     228921  MISS:      52854
L2C PREFETCH  ACCESS:    7207280  HIT:    6834193  MISS:     373087
L2C WRITEBACK ACCESS:     605090  HIT:     602853  MISS:       2237
L2C PREFETCH  REQUESTED:    8085120  ISSUED:    8051164  USEFUL:      21169  USELESS:     351353
L2C AVERAGE MISS LATENCY: 41.9857 cycles
L2C

SHEET
L2C-total_access : 9633865
L2C-total_hit : 9016254
L2C-total_miss : 617611
L2C-load_access : 1539720
L2C-load_hit : 1350287
L2C-load_miss : 189433
L2C-rfo_access : 281775
L2C-rfo_hit : 228921
L2C-rfo_miss : 52854
L2C-prefetch_access : 7207280
L2C-prefetch_hit : 6834193
L2C-prefetch_miss : 373087
L2C-writeback_access : 605090
L2C-writeback_hit : 602853
L2C-writeback_miss : 2237
L2C-prefetch_requested : 8085120
L2C-prefetch_issued : 8051164
L2C-prefetch_useful : 21169
L2C-prefetch_useless : 351353
L2C-Avg_miss_latency : 41.9857
L2C-Morteza_fill_l2_prefetches : 2139161

LLC TOTAL     ACCESS:    2820624  HIT:    2750295  MISS:      70329
LLC LOAD      ACCESS:     189295  HIT:     173307  MISS:      15988
LLC RFO       ACCESS:      52847  HIT:      50872  MISS:       1975
LLC PREFETCH  ACCESS:    2484486  HIT:    2432492  MISS:      51994
LLC WRITEBACK ACCESS:      93996  HIT:      93624  MISS:        372
LLC PREFETCH  REQUESTED:          0  ISSUED:          0  USEFUL:       2372  USELESS:      48930
LLC AVERAGE MISS LATENCY: 157.676 cycles
LLC

SHEET
LLC-total_access : 2820624
LLC-total_hit : 2750295
LLC-total_miss : 70329
LLC-load_access : 189295
LLC-load_hit : 173307
LLC-load_miss : 15988
LLC-rfo_access : 52847
LLC-rfo_hit : 50872
LLC-rfo_miss : 1975
LLC-prefetch_access : 2484487
LLC-prefetch_hit : 2432493
LLC-prefetch_miss : 51994
LLC-writeback_access : 93996
LLC-writeback_hit : 93624
LLC-writeback_miss : 372
LLC-prefetch_requested : 0
LLC-prefetch_issued : 0
LLC-prefetch_useful : 2372
LLC-prefetch_useless : 48930
LLC-Avg_miss_latency : 157.676
LLC-Morteza_fill_l2_prefetches : 2095479

Major fault: 0 Minor fault: 6037



Printing Logs
statHeadFound: 1026085
statHeadMissing: 988815
statStreamBufferHit: 12425639
statPrefetchEntryFound: 7235563
statCompactorMatch: 11769562
statStreamTrackerLookup: 14440539
statRecord: 2670977
statGetPointer: 2014900
statEnqueuePrefetch: 21411232
statPrefetchQueueIsFull: 80614
StreamBufferHitRate: 0.860469
Regions' size: 1797
next_region_correct: 1876198
next_region_wrong: 792964
next_region_correct_prediction: 0.702916
statStreamBufferLookups: 1039718808
statL1iLookups: 171289856
statCompactorLookups: 519859404
morteza: start

SHEET
mana_table_access_counter : 9987136
hobp_table_access_counter : 26059682
sab_access_counter : 19661202
srq_access_counter : 15823162

morteza: end
CPU 0 L1D next line prefetcher final stats

DRAM Statistics
 CHANNEL 0
 RQ ROW_BUFFER_HIT:      19491  ROW_BUFFER_MISS:      50466
 DBUS_CONGESTED:      29548
 WQ ROW_BUFFER_HIT:        400  ROW_BUFFER_MISS:       3152  FULL:          0

 AVG_CONGESTED_CYCLE: 5

CPU 0 Branch Prediction Accuracy: 99.7093% MPKI: 0.54708 Average ROB Occupancy at Mispredict: 134.817

Branch types
NOT_BRANCH: 40590958 81.1819%
BRANCH_DIRECT_JUMP: 523492 1.04698%
BRANCH_INDIRECT: 166997 0.333994%
BRANCH_CONDITIONAL: 6365191 12.7304%
BRANCH_DIRECT_CALL: 989496 1.97899%
BRANCH_INDIRECT_CALL: 187203 0.374406%
BRANCH_RETURN: 1176698 2.3534%
BRANCH_OTHER: 0 0%

