Initialize SIGNATURE TABLE
ST_SET: 1
ST_WAY: 256
ST_TAG_BIT: 16
ST_TAG_MASK: ffff

Initialize PATTERN TABLE
PT_SET: 512
PT_WAY: 4
SIG_DELTA_BIT: 7
C_SIG_BIT: 4
C_DELTA_BIT: 4

Initialize PREFETCH FILTER
FILTER_SET: 1024
MANA initialize 
tds: 2 tdm: 2
size MANA SINGLE: 15.5 KB
size MANA NULTIPLE: 0 KB
size HOBPT: 0.703125 KB
size SRQ: 0.14502 KB
size SABs: 0.290039 KB
size prefetch queue: 0.453125 KB
total: 17.0913 KB

*** ChampSim Multicore Out-of-Order Simulator ***

Warmup Instructions: 50000000
Simulation Instructions: 50000000
Number of CPUs: 1
LLC sets: 2048
LLC ways: 16
Off-chip DRAM Size: 4096 MB Channels: 1 Width: 64-bit Data Rate: 3200 MT/s

CPU 0 runs /home/mbaradaran/ChampSim/dpc3_traces/server_013.champsimtrace.xz
CPU 0 L1D next line prefetcher
Heartbeat CPU 0 instructions: 10000000 cycles: 3219983 heartbeat IPC: 3.10561 cumulative IPC: 3.10561 (Simulation time: 0 hr 1 min 18 sec) 
Heartbeat CPU 0 instructions: 20000001 cycles: 6430493 heartbeat IPC: 3.11477 cumulative IPC: 3.11018 (Simulation time: 0 hr 2 min 36 sec) 
Heartbeat CPU 0 instructions: 30000002 cycles: 9644274 heartbeat IPC: 3.1116 cumulative IPC: 3.11065 (Simulation time: 0 hr 3 min 55 sec) 
Heartbeat CPU 0 instructions: 40000002 cycles: 12853674 heartbeat IPC: 3.11585 cumulative IPC: 3.11195 (Simulation time: 0 hr 5 min 9 sec) 
Heartbeat CPU 0 instructions: 50000000 cycles: 16063986 heartbeat IPC: 3.11496 cumulative IPC: 3.11255 (Simulation time: 0 hr 6 min 31 sec) 

Warmup complete CPU 0 instructions: 50000004 cycles: 16063987 (Simulation time: 0 hr 6 min 31 sec) 

Heartbeat CPU 0 instructions: 60000002 cycles: 24188905 heartbeat IPC: 1.23078 cumulative IPC: 1.23078 (Simulation time: 0 hr 7 min 38 sec) 
Heartbeat CPU 0 instructions: 70000003 cycles: 32593646 heartbeat IPC: 1.1898 cumulative IPC: 1.20995 (Simulation time: 0 hr 8 min 45 sec) 
Heartbeat CPU 0 instructions: 80000003 cycles: 40370155 heartbeat IPC: 1.28592 cumulative IPC: 1.23425 (Simulation time: 0 hr 9 min 58 sec) 
Heartbeat CPU 0 instructions: 90000003 cycles: 48344750 heartbeat IPC: 1.25398 cumulative IPC: 1.23913 (Simulation time: 0 hr 11 min 5 sec) 
Heartbeat CPU 0 instructions: 100000003 cycles: 56295262 heartbeat IPC: 1.25778 cumulative IPC: 1.24281 (Simulation time: 0 hr 12 min 12 sec) 
Finished CPU 0 instructions: 50000003 cycles: 40231276 cumulative IPC: 1.24281 (Simulation time: 0 hr 12 min 12 sec) 

ChampSim completed all CPUs

Region of Interest Statistics

CPU 0 cumulative IPC: 1.24281 instructions: 50000003 cycles: 40231276

SHEET
IPC : 1.24281

L1D TOTAL     ACCESS:   17584900  HIT:   16518012  MISS:    1066888
L1D LOAD      ACCESS:    6441324  HIT:    5942564  MISS:     498760
L1D RFO       ACCESS:    4941358  HIT:    4860997  MISS:      80361
L1D PREFETCH  ACCESS:    6202218  HIT:    5714451  MISS:     487767
L1D WRITEBACK ACCESS:          0  HIT:          0  MISS:          0
L1D PREFETCH  REQUESTED:    6477195  ISSUED:    6380721  USEFUL:     135874  USELESS:     351900
L1D AVERAGE MISS LATENCY: 42.5198 cycles
L1D

SHEET
L1D-total_access : 17584900
L1D-total_hit : 16518012
L1D-total_miss : 1066888
L1D-load_access : 6441324
L1D-load_hit : 5942564
L1D-load_miss : 498760
L1D-rfo_access : 4941358
L1D-rfo_hit : 4860997
L1D-rfo_miss : 80361
L1D-prefetch_access : 6202218
L1D-prefetch_hit : 5714451
L1D-prefetch_miss : 487767
L1D-writeback_access : 0
L1D-writeback_hit : 0
L1D-writeback_miss : 0
L1D-prefetch_requested : 6477195
L1D-prefetch_issued : 6380721
L1D-prefetch_useful : 135874
L1D-prefetch_useless : 351900
L1D-Avg_miss_latency : 42.5198
L1D-Morteza_fill_l2_prefetches : 0

L1I TOTAL     ACCESS:   15824478  HIT:   13127186  MISS:    2697292
L1I LOAD      ACCESS:    8641090  HIT:    8190631  MISS:     450459
L1I RFO       ACCESS:          0  HIT:          0  MISS:          0
L1I PREFETCH  ACCESS:    7183388  HIT:    4936555  MISS:    2246833
L1I WRITEBACK ACCESS:          0  HIT:          0  MISS:          0
L1I PREFETCH  REQUESTED:    8158224  ISSUED:    7569633  USEFUL:    1161652  USELESS:    1085239
L1I AVERAGE MISS LATENCY: 26.5431 cycles
L1I

SHEET
L1I-total_access : 15824478
L1I-total_hit : 13127186
L1I-total_miss : 2697292
L1I-load_access : 8641090
L1I-load_hit : 8190631
L1I-load_miss : 450459
L1I-rfo_access : 0
L1I-rfo_hit : 0
L1I-rfo_miss : 0
L1I-prefetch_access : 7183388
L1I-prefetch_hit : 4936555
L1I-prefetch_miss : 2246833
L1I-writeback_access : 0
L1I-writeback_hit : 0
L1I-writeback_miss : 0
L1I-prefetch_requested : 8158224
L1I-prefetch_issued : 7569633
L1I-prefetch_useful : 1161652
L1I-prefetch_useless : 1085239
L1I-Avg_miss_latency : 26.5431
L1I-Morteza_fill_l2_prefetches : 0

L2C TOTAL     ACCESS:    4801193  HIT:    3410614  MISS:    1390579
L2C LOAD      ACCESS:     804804  HIT:     391737  MISS:     413067
L2C RFO       ACCESS:      78997  HIT:      30088  MISS:      48909
L2C PREFETCH  ACCESS:    3641592  HIT:    2716058  MISS:     925534
L2C WRITEBACK ACCESS:     275800  HIT:     272731  MISS:       3069
L2C PREFETCH  REQUESTED:    4526354  ISSUED:    4519546  USEFUL:      69400  USELESS:     855331
L2C AVERAGE MISS LATENCY: 45.9859 cycles
L2C

SHEET
L2C-total_access : 4801193
L2C-total_hit : 3410614
L2C-total_miss : 1390579
L2C-load_access : 804804
L2C-load_hit : 391737
L2C-load_miss : 413067
L2C-rfo_access : 78997
L2C-rfo_hit : 30088
L2C-rfo_miss : 48909
L2C-prefetch_access : 3641592
L2C-prefetch_hit : 2716058
L2C-prefetch_miss : 925534
L2C-writeback_access : 275800
L2C-writeback_hit : 272731
L2C-writeback_miss : 3069
L2C-prefetch_requested : 4526354
L2C-prefetch_issued : 4519546
L2C-prefetch_useful : 69400
L2C-prefetch_useless : 855331
L2C-Avg_miss_latency : 45.9859
L2C-Morteza_fill_l2_prefetches : 778669

LLC TOTAL     ACCESS:    2797805  HIT:    2628353  MISS:     169452
LLC LOAD      ACCESS:     412066  HIT:     384009  MISS:      28057
LLC RFO       ACCESS:      48891  HIT:      38625  MISS:      10266
LLC PREFETCH  ACCESS:    2159663  HIT:    2028741  MISS:     130922
LLC WRITEBACK ACCESS:     177185  HIT:     176978  MISS:        207
LLC PREFETCH  REQUESTED:          0  ISSUED:          0  USEFUL:      15171  USELESS:     114054
LLC AVERAGE MISS LATENCY: 172.233 cycles
LLC

SHEET
LLC-total_access : 2797805
LLC-total_hit : 2628353
LLC-total_miss : 169452
LLC-load_access : 412066
LLC-load_hit : 384009
LLC-load_miss : 28057
LLC-rfo_access : 48891
LLC-rfo_hit : 38625
LLC-rfo_miss : 10266
LLC-prefetch_access : 2159663
LLC-prefetch_hit : 2028741
LLC-prefetch_miss : 130922
LLC-writeback_access : 177185
LLC-writeback_hit : 176978
LLC-writeback_miss : 207
LLC-prefetch_requested : 0
LLC-prefetch_issued : 0
LLC-prefetch_useful : 15171
LLC-prefetch_useless : 114054
LLC-Avg_miss_latency : 172.233
LLC-Morteza_fill_l2_prefetches : 1232888

Major fault: 0 Minor fault: 6200



Printing Logs
statHeadFound: 483500
statHeadMissing: 734836
statStreamBufferHit: 10849493
statPrefetchEntryFound: 4175704
statCompactorMatch: 10206516
statStreamTrackerLookup: 12067829
statRecord: 1861313
statGetPointer: 1218336
statEnqueuePrefetch: 14948120
statPrefetchQueueIsFull: 69521
StreamBufferHitRate: 0.899043
Regions' size: 3975
next_region_correct: 1520974
next_region_wrong: 336346
next_region_correct_prediction: 0.818908
statStreamBufferLookups: 868883688
statL1iLookups: 119584960
statCompactorLookups: 434441844
morteza: start

SHEET
mana_table_access_counter : 6106520
hobp_table_access_counter : 16563836
sab_access_counter : 15025197
srq_access_counter : 12578474

morteza: end
CPU 0 L1D next line prefetcher final stats

DRAM Statistics
 CHANNEL 0
 RQ ROW_BUFFER_HIT:      27135  ROW_BUFFER_MISS:     142095
 DBUS_CONGESTED:      76205
 WQ ROW_BUFFER_HIT:      12299  ROW_BUFFER_MISS:      52268  FULL:          0

 AVG_CONGESTED_CYCLE: 5

CPU 0 Branch Prediction Accuracy: 99.4114% MPKI: 1.0933 Average ROB Occupancy at Mispredict: 103.21

Branch types
NOT_BRANCH: 40713257 81.4265%
BRANCH_DIRECT_JUMP: 463701 0.927402%
BRANCH_INDIRECT: 146544 0.293088%
BRANCH_CONDITIONAL: 6981953 13.9639%
BRANCH_DIRECT_CALL: 665005 1.33001%
BRANCH_INDIRECT_CALL: 165152 0.330304%
BRANCH_RETURN: 864314 1.72863%
BRANCH_OTHER: 0 0%

