Initialize SIGNATURE TABLE
ST_SET: 1
ST_WAY: 256
ST_TAG_BIT: 16
ST_TAG_MASK: ffff

Initialize PATTERN TABLE
PT_SET: 512
PT_WAY: 4
SIG_DELTA_BIT: 7
C_SIG_BIT: 4
C_DELTA_BIT: 4

Initialize PREFETCH FILTER
FILTER_SET: 1024
MANA initialize 
tds: 2 tdm: 2
size MANA SINGLE: 15.5 KB
size MANA NULTIPLE: 0 KB
size HOBPT: 0.703125 KB
size SRQ: 0.14502 KB
size SABs: 0.290039 KB
size prefetch queue: 0.453125 KB
total: 17.0913 KB

*** ChampSim Multicore Out-of-Order Simulator ***

Warmup Instructions: 50000000
Simulation Instructions: 50000000
Number of CPUs: 1
LLC sets: 2048
LLC ways: 16
Off-chip DRAM Size: 4096 MB Channels: 1 Width: 64-bit Data Rate: 3200 MT/s

CPU 0 runs /home/mbaradaran/ChampSim/dpc3_traces/spec_gcc_003.champsimtrace.xz
CPU 0 L1D next line prefetcher
Heartbeat CPU 0 instructions: 10000001 cycles: 3483482 heartbeat IPC: 2.87069 cumulative IPC: 2.87069 (Simulation time: 0 hr 1 min 20 sec) 
Heartbeat CPU 0 instructions: 20000000 cycles: 6957889 heartbeat IPC: 2.87819 cumulative IPC: 2.87443 (Simulation time: 0 hr 2 min 34 sec) 
Heartbeat CPU 0 instructions: 30000002 cycles: 10403253 heartbeat IPC: 2.90245 cumulative IPC: 2.88371 (Simulation time: 0 hr 3 min 42 sec) 
Heartbeat CPU 0 instructions: 40000000 cycles: 13874430 heartbeat IPC: 2.88087 cumulative IPC: 2.883 (Simulation time: 0 hr 4 min 52 sec) 
Heartbeat CPU 0 instructions: 50000001 cycles: 17188434 heartbeat IPC: 3.0175 cumulative IPC: 2.90893 (Simulation time: 0 hr 5 min 57 sec) 

Warmup complete CPU 0 instructions: 50000001 cycles: 17188434 (Simulation time: 0 hr 5 min 57 sec) 

Heartbeat CPU 0 instructions: 60000000 cycles: 57746005 heartbeat IPC: 0.246563 cumulative IPC: 0.246563 (Simulation time: 0 hr 8 min 46 sec) 
Heartbeat CPU 0 instructions: 70000000 cycles: 101354337 heartbeat IPC: 0.229314 cumulative IPC: 0.237626 (Simulation time: 0 hr 11 min 33 sec) 
Heartbeat CPU 0 instructions: 80000002 cycles: 145710353 heartbeat IPC: 0.225449 cumulative IPC: 0.233423 (Simulation time: 0 hr 14 min 18 sec) 
Heartbeat CPU 0 instructions: 90000002 cycles: 183167313 heartbeat IPC: 0.266973 cumulative IPC: 0.240995 (Simulation time: 0 hr 16 min 42 sec) 
Heartbeat CPU 0 instructions: 100000001 cycles: 229962755 heartbeat IPC: 0.213696 cumulative IPC: 0.234991 (Simulation time: 0 hr 19 min 34 sec) 
Finished CPU 0 instructions: 50000000 cycles: 212774321 cumulative IPC: 0.234991 (Simulation time: 0 hr 19 min 34 sec) 

ChampSim completed all CPUs

Region of Interest Statistics

CPU 0 cumulative IPC: 0.234991 instructions: 50000000 cycles: 212774321

SHEET
IPC : 0.234991

L1D TOTAL     ACCESS:   17037051  HIT:   11312606  MISS:    5724445
L1D LOAD      ACCESS:    4650880  HIT:    4268398  MISS:     382482
L1D RFO       ACCESS:    8221499  HIT:    3169827  MISS:    5051672
L1D PREFETCH  ACCESS:    4164672  HIT:    3874381  MISS:     290291
L1D WRITEBACK ACCESS:          0  HIT:          0  MISS:          0
L1D PREFETCH  REQUESTED:    4669685  ISSUED:    4611093  USEFUL:     152745  USELESS:     137725
L1D AVERAGE MISS LATENCY: 504.843 cycles
L1D

SHEET
L1D-total_access : 17037051
L1D-total_hit : 11312606
L1D-total_miss : 5724445
L1D-load_access : 4650880
L1D-load_hit : 4268398
L1D-load_miss : 382482
L1D-rfo_access : 8221499
L1D-rfo_hit : 3169827
L1D-rfo_miss : 5051672
L1D-prefetch_access : 4164672
L1D-prefetch_hit : 3874381
L1D-prefetch_miss : 290291
L1D-writeback_access : 0
L1D-writeback_hit : 0
L1D-writeback_miss : 0
L1D-prefetch_requested : 4669685
L1D-prefetch_issued : 4611093
L1D-prefetch_useful : 152745
L1D-prefetch_useless : 137725
L1D-Avg_miss_latency : 504.843
L1D-Morteza_fill_l2_prefetches : 0

L1I TOTAL     ACCESS:   16535942  HIT:   15127453  MISS:    1408489
L1I LOAD      ACCESS:   11274058  HIT:   10978965  MISS:     295093
L1I RFO       ACCESS:          0  HIT:          0  MISS:          0
L1I PREFETCH  ACCESS:    5261884  HIT:    4148488  MISS:    1113396
L1I WRITEBACK ACCESS:          0  HIT:          0  MISS:          0
L1I PREFETCH  REQUESTED:    6508088  ISSUED:    5740858  USEFUL:     606379  USELESS:     506992
L1I AVERAGE MISS LATENCY: 47.312 cycles
L1I

SHEET
L1I-total_access : 16535942
L1I-total_hit : 15127453
L1I-total_miss : 1408489
L1I-load_access : 11274058
L1I-load_hit : 10978965
L1I-load_miss : 295093
L1I-rfo_access : 0
L1I-rfo_hit : 0
L1I-rfo_miss : 0
L1I-prefetch_access : 5261884
L1I-prefetch_hit : 4148488
L1I-prefetch_miss : 1113396
L1I-writeback_access : 0
L1I-writeback_hit : 0
L1I-writeback_miss : 0
L1I-prefetch_requested : 6508088
L1I-prefetch_issued : 5740858
L1I-prefetch_useful : 606379
L1I-prefetch_useless : 506992
L1I-Avg_miss_latency : 47.312
L1I-Morteza_fill_l2_prefetches : 0

L2C TOTAL     ACCESS:   12712927  HIT:    6666360  MISS:    6046567
L2C LOAD      ACCESS:     432564  HIT:     182255  MISS:     250309
L2C RFO       ACCESS:    5049894  HIT:       6493  MISS:    5043401
L2C PREFETCH  ACCESS:    2072561  HIT:    1319940  MISS:     752621
L2C WRITEBACK ACCESS:    5157908  HIT:    5157672  MISS:        236
L2C PREFETCH  REQUESTED:    2310168  ISSUED:    2310077  USEFUL:      68470  USELESS:     680985
L2C AVERAGE MISS LATENCY: 474.983 cycles
L2C

SHEET
L2C-total_access : 12712927
L2C-total_hit : 6666360
L2C-total_miss : 6046567
L2C-load_access : 432564
L2C-load_hit : 182255
L2C-load_miss : 250309
L2C-rfo_access : 5049894
L2C-rfo_hit : 6493
L2C-rfo_miss : 5043401
L2C-prefetch_access : 2072561
L2C-prefetch_hit : 1319940
L2C-prefetch_miss : 752621
L2C-writeback_access : 5157908
L2C-writeback_hit : 5157672
L2C-writeback_miss : 236
L2C-prefetch_requested : 2310168
L2C-prefetch_issued : 2310077
L2C-prefetch_useful : 68470
L2C-prefetch_useless : 680985
L2C-Avg_miss_latency : 474.983
L2C-Morteza_fill_l2_prefetches : 383205

LLC TOTAL     ACCESS:   12023715  HIT:    7297091  MISS:    4726624
LLC LOAD      ACCESS:     250269  HIT:     183979  MISS:      66290
LLC RFO       ACCESS:    5043400  HIT:     618413  MISS:    4424987
LLC PREFETCH  ACCESS:    1596135  HIT:    1360788  MISS:     235347
LLC WRITEBACK ACCESS:    5133911  HIT:    5133911  MISS:          0
LLC PREFETCH  REQUESTED:          0  ISSUED:          0  USEFUL:      20075  USELESS:     214845
LLC AVERAGE MISS LATENCY: 576.433 cycles
LLC

SHEET
LLC-total_access : 12023715
LLC-total_hit : 7297091
LLC-total_miss : 4726624
LLC-load_access : 250269
LLC-load_hit : 183979
LLC-load_miss : 66290
LLC-rfo_access : 5043400
LLC-rfo_hit : 618413
LLC-rfo_miss : 4424987
LLC-prefetch_access : 1596135
LLC-prefetch_hit : 1360788
LLC-prefetch_miss : 235347
LLC-writeback_access : 5133911
LLC-writeback_hit : 5133911
LLC-writeback_miss : 0
LLC-prefetch_requested : 0
LLC-prefetch_issued : 0
LLC-prefetch_useful : 20075
LLC-prefetch_useless : 214845
LLC-Avg_miss_latency : 576.433
LLC-Morteza_fill_l2_prefetches : 842639

Major fault: 0 Minor fault: 2817



Printing Logs
statHeadFound: 502117
statHeadMissing: 2085011
statStreamBufferHit: 7377231
statPrefetchEntryFound: 3471167
statCompactorMatch: 9000629
statStreamTrackerLookup: 9964359
statRecord: 963730
statGetPointer: 2587128
statEnqueuePrefetch: 10865550
statPrefetchQueueIsFull: 44476
StreamBufferHitRate: 0.740362
Regions' size: 1459
next_region_correct: 562792
next_region_wrong: 399461
next_region_correct_prediction: 0.584869
statStreamBufferLookups: 717433848
statL1iLookups: 86924400
statCompactorLookups: 358716924
morteza: start

SHEET
mana_table_access_counter : 4479355
hobp_table_access_counter : 17719042
sab_access_counter : 10848398
srq_access_counter : 9331417

morteza: end
CPU 0 L1D next line prefetcher final stats

DRAM Statistics
 CHANNEL 0
 RQ ROW_BUFFER_HIT:    1426422  ROW_BUFFER_MISS:    3300161
 DBUS_CONGESTED:    8222427
 WQ ROW_BUFFER_HIT:    1195096  ROW_BUFFER_MISS:    3258978  FULL:          0

 AVG_CONGESTED_CYCLE: 6

CPU 0 Branch Prediction Accuracy: 99.665% MPKI: 0.78342 Average ROB Occupancy at Mispredict: 101.993

Branch types
NOT_BRANCH: 38305862 76.6117%
BRANCH_DIRECT_JUMP: 384282 0.768564%
BRANCH_INDIRECT: 71949 0.143898%
BRANCH_CONDITIONAL: 9879826 19.7597%
BRANCH_DIRECT_CALL: 650586 1.30117%
BRANCH_INDIRECT_CALL: 28456 0.056912%
BRANCH_RETURN: 679046 1.35809%
BRANCH_OTHER: 0 0%

