Initialize SIGNATURE TABLE
ST_SET: 1
ST_WAY: 256
ST_TAG_BIT: 16
ST_TAG_MASK: ffff

Initialize PATTERN TABLE
PT_SET: 512
PT_WAY: 4
SIG_DELTA_BIT: 7
C_SIG_BIT: 4
C_DELTA_BIT: 4

Initialize PREFETCH FILTER
FILTER_SET: 1024
MANA initialize 
tds: 2 tdm: 2
size MANA SINGLE: 15.5 KB
size MANA NULTIPLE: 0 KB
size HOBPT: 0.703125 KB
size SRQ: 0.14502 KB
size SABs: 0.290039 KB
size prefetch queue: 0.453125 KB
total: 17.0913 KB

*** ChampSim Multicore Out-of-Order Simulator ***

Warmup Instructions: 50000000
Simulation Instructions: 50000000
Number of CPUs: 1
LLC sets: 2048
LLC ways: 16
Off-chip DRAM Size: 4096 MB Channels: 1 Width: 64-bit Data Rate: 3200 MT/s

CPU 0 runs /home/mbaradaran/ChampSim/dpc3_traces/spec_perlbench_001.champsimtrace.xz
CPU 0 L1D next line prefetcher
Heartbeat CPU 0 instructions: 10000000 cycles: 3276246 heartbeat IPC: 3.05227 cumulative IPC: 3.05227 (Simulation time: 0 hr 1 min 17 sec) 
Heartbeat CPU 0 instructions: 20000000 cycles: 6541558 heartbeat IPC: 3.06249 cumulative IPC: 3.05738 (Simulation time: 0 hr 2 min 31 sec) 
Heartbeat CPU 0 instructions: 30000002 cycles: 9859213 heartbeat IPC: 3.01418 cumulative IPC: 3.04284 (Simulation time: 0 hr 3 min 48 sec) 
Heartbeat CPU 0 instructions: 40000002 cycles: 13115037 heartbeat IPC: 3.07142 cumulative IPC: 3.04993 (Simulation time: 0 hr 4 min 55 sec) 
Heartbeat CPU 0 instructions: 50000001 cycles: 16389036 heartbeat IPC: 3.05437 cumulative IPC: 3.05082 (Simulation time: 0 hr 6 min 1 sec) 

Warmup complete CPU 0 instructions: 50000001 cycles: 16389036 (Simulation time: 0 hr 6 min 1 sec) 

Heartbeat CPU 0 instructions: 60000001 cycles: 24711272 heartbeat IPC: 1.2016 cumulative IPC: 1.2016 (Simulation time: 0 hr 7 min 2 sec) 
Heartbeat CPU 0 instructions: 70000000 cycles: 32954820 heartbeat IPC: 1.21307 cumulative IPC: 1.20731 (Simulation time: 0 hr 8 min 7 sec) 
Heartbeat CPU 0 instructions: 80000000 cycles: 41415588 heartbeat IPC: 1.18193 cumulative IPC: 1.19873 (Simulation time: 0 hr 9 min 8 sec) 
Heartbeat CPU 0 instructions: 90000000 cycles: 47151469 heartbeat IPC: 1.74341 cumulative IPC: 1.30029 (Simulation time: 0 hr 9 min 56 sec) 
Heartbeat CPU 0 instructions: 100000002 cycles: 53037353 heartbeat IPC: 1.69898 cumulative IPC: 1.36432 (Simulation time: 0 hr 10 min 44 sec) 
Finished CPU 0 instructions: 50000001 cycles: 36648317 cumulative IPC: 1.36432 (Simulation time: 0 hr 10 min 44 sec) 

ChampSim completed all CPUs

Region of Interest Statistics

CPU 0 cumulative IPC: 1.36432 instructions: 50000001 cycles: 36648317

SHEET
IPC : 1.36432

L1D TOTAL     ACCESS:   20747673  HIT:   20332560  MISS:     415113
L1D LOAD      ACCESS:    7202381  HIT:    6988689  MISS:     213692
L1D RFO       ACCESS:    6543199  HIT:    6524705  MISS:      18494
L1D PREFETCH  ACCESS:    7002093  HIT:    6819166  MISS:     182927
L1D WRITEBACK ACCESS:          0  HIT:          0  MISS:          0
L1D PREFETCH  REQUESTED:    7218362  ISSUED:    7103176  USEFUL:      55239  USELESS:     127683
L1D AVERAGE MISS LATENCY: 58.1327 cycles
L1D

SHEET
L1D-total_access : 20747673
L1D-total_hit : 20332560
L1D-total_miss : 415113
L1D-load_access : 7202381
L1D-load_hit : 6988689
L1D-load_miss : 213692
L1D-rfo_access : 6543199
L1D-rfo_hit : 6524705
L1D-rfo_miss : 18494
L1D-prefetch_access : 7002093
L1D-prefetch_hit : 6819166
L1D-prefetch_miss : 182927
L1D-writeback_access : 0
L1D-writeback_hit : 0
L1D-writeback_miss : 0
L1D-prefetch_requested : 7218362
L1D-prefetch_issued : 7103176
L1D-prefetch_useful : 55239
L1D-prefetch_useless : 127683
L1D-Avg_miss_latency : 58.1327
L1D-Morteza_fill_l2_prefetches : 0

L1I TOTAL     ACCESS:   17940349  HIT:   17098233  MISS:     842116
L1I LOAD      ACCESS:    9147331  HIT:    8991353  MISS:     155978
L1I RFO       ACCESS:          0  HIT:          0  MISS:          0
L1I PREFETCH  ACCESS:    8793018  HIT:    8106880  MISS:     686138
L1I WRITEBACK ACCESS:          0  HIT:          0  MISS:          0
L1I PREFETCH  REQUESTED:    9340495  ISSUED:    9175433  USEFUL:     402986  USELESS:     283133
L1I AVERAGE MISS LATENCY: 16.2211 cycles
L1I

SHEET
L1I-total_access : 17940349
L1I-total_hit : 17098233
L1I-total_miss : 842116
L1I-load_access : 9147331
L1I-load_hit : 8991353
L1I-load_miss : 155978
L1I-rfo_access : 0
L1I-rfo_hit : 0
L1I-rfo_miss : 0
L1I-prefetch_access : 8793018
L1I-prefetch_hit : 8106880
L1I-prefetch_miss : 686138
L1I-writeback_access : 0
L1I-writeback_hit : 0
L1I-writeback_miss : 0
L1I-prefetch_requested : 9340495
L1I-prefetch_issued : 9175433
L1I-prefetch_useful : 402986
L1I-prefetch_useless : 283133
L1I-Avg_miss_latency : 16.2211
L1I-Morteza_fill_l2_prefetches : 0

L2C TOTAL     ACCESS:    1782653  HIT:    1616576  MISS:     166077
L2C LOAD      ACCESS:     330286  HIT:     249508  MISS:      80778
L2C RFO       ACCESS:      18260  HIT:      12892  MISS:       5368
L2C PREFETCH  ACCESS:    1355157  HIT:    1275575  MISS:      79582
L2C WRITEBACK ACCESS:      78950  HIT:      78601  MISS:        349
L2C PREFETCH  REQUESTED:    1154931  ISSUED:    1154888  USEFUL:       6643  USELESS:      72871
L2C AVERAGE MISS LATENCY: 120.977 cycles
L2C

SHEET
L2C-total_access : 1782653
L2C-total_hit : 1616576
L2C-total_miss : 166077
L2C-load_access : 330286
L2C-load_hit : 249508
L2C-load_miss : 80778
L2C-rfo_access : 18260
L2C-rfo_hit : 12892
L2C-rfo_miss : 5368
L2C-prefetch_access : 1355157
L2C-prefetch_hit : 1275575
L2C-prefetch_miss : 79582
L2C-writeback_access : 78950
L2C-writeback_hit : 78601
L2C-writeback_miss : 349
L2C-prefetch_requested : 1154931
L2C-prefetch_issued : 1154888
L2C-prefetch_useful : 6643
L2C-prefetch_useless : 72871
L2C-Avg_miss_latency : 120.977
L2C-Morteza_fill_l2_prefetches : 449930

LLC TOTAL     ACCESS:     424388  HIT:     280893  MISS:     143495
LLC LOAD      ACCESS:      80776  HIT:      31865  MISS:      48911
LLC RFO       ACCESS:       5368  HIT:       2310  MISS:       3058
LLC PREFETCH  ACCESS:     313039  HIT:     222023  MISS:      91016
LLC WRITEBACK ACCESS:      25205  HIT:      24695  MISS:        510
LLC PREFETCH  REQUESTED:          0  ISSUED:          0  USEFUL:      14477  USELESS:      76515
LLC AVERAGE MISS LATENCY: 160.107 cycles
LLC

SHEET
LLC-total_access : 424388
LLC-total_hit : 280893
LLC-total_miss : 143495
LLC-load_access : 80776
LLC-load_hit : 31865
LLC-load_miss : 48911
LLC-rfo_access : 5368
LLC-rfo_hit : 2310
LLC-rfo_miss : 3058
LLC-prefetch_access : 313039
LLC-prefetch_hit : 222023
LLC-prefetch_miss : 91016
LLC-writeback_access : 25205
LLC-writeback_hit : 24695
LLC-writeback_miss : 510
LLC-prefetch_requested : 0
LLC-prefetch_issued : 0
LLC-prefetch_useful : 14477
LLC-prefetch_useless : 76515
LLC-Avg_miss_latency : 160.107
LLC-Morteza_fill_l2_prefetches : 186273

Major fault: 0 Minor fault: 6364



Printing Logs
statHeadFound: 665572
statHeadMissing: 272236
statStreamBufferHit: 13343438
statPrefetchEntryFound: 6017623
statCompactorMatch: 12973321
statStreamTrackerLookup: 14281246
statRecord: 1307925
statGetPointer: 937808
statEnqueuePrefetch: 18588564
statPrefetchQueueIsFull: 29330
StreamBufferHitRate: 0.934333
Regions' size: 2394
next_region_correct: 915048
next_region_wrong: 390465
next_region_correct_prediction: 0.700911
statStreamBufferLookups: 1028249712
statL1iLookups: 148708512
statCompactorLookups: 514124856
morteza: start

SHEET
mana_table_access_counter : 7354860
hobp_table_access_counter : 15029831
sab_access_counter : 19361061
srq_access_counter : 12606276

morteza: end
CPU 0 L1D next line prefetcher final stats

DRAM Statistics
 CHANNEL 0
 RQ ROW_BUFFER_HIT:      33138  ROW_BUFFER_MISS:     109846
 DBUS_CONGESTED:      58126
 WQ ROW_BUFFER_HIT:       4184  ROW_BUFFER_MISS:      13226  FULL:          0

 AVG_CONGESTED_CYCLE: 4

CPU 0 Branch Prediction Accuracy: 98.7418% MPKI: 2.47758 Average ROB Occupancy at Mispredict: 75.8808

Branch types
NOT_BRANCH: 40154100 80.3082%
BRANCH_DIRECT_JUMP: 817094 1.63419%
BRANCH_INDIRECT: 303787 0.607574%
BRANCH_CONDITIONAL: 7492103 14.9842%
BRANCH_DIRECT_CALL: 471777 0.943554%
BRANCH_INDIRECT_CALL: 144546 0.289092%
BRANCH_RETURN: 616324 1.23265%
BRANCH_OTHER: 0 0%

