Initialize SIGNATURE TABLE
ST_SET: 1
ST_WAY: 256
ST_TAG_BIT: 16
ST_TAG_MASK: ffff

Initialize PATTERN TABLE
PT_SET: 512
PT_WAY: 4
SIG_DELTA_BIT: 7
C_SIG_BIT: 4
C_DELTA_BIT: 4

Initialize PREFETCH FILTER
FILTER_SET: 1024
MANA initialize 
tds: 2 tdm: 2
size MANA SINGLE: 15.5 KB
size MANA NULTIPLE: 0 KB
size HOBPT: 0.703125 KB
size SRQ: 0.14502 KB
size SABs: 0.290039 KB
size prefetch queue: 0.453125 KB
total: 17.0913 KB

*** ChampSim Multicore Out-of-Order Simulator ***

Warmup Instructions: 50000000
Simulation Instructions: 50000000
Number of CPUs: 1
LLC sets: 2048
LLC ways: 16
Off-chip DRAM Size: 4096 MB Channels: 1 Width: 64-bit Data Rate: 3200 MT/s

CPU 0 runs /home/mbaradaran/ChampSim/dpc3_traces/spec_gobmk_001.champsimtrace.xz
CPU 0 L1D next line prefetcher
Heartbeat CPU 0 instructions: 10000003 cycles: 3506964 heartbeat IPC: 2.85147 cumulative IPC: 2.85147 (Simulation time: 0 hr 1 min 6 sec) 
Heartbeat CPU 0 instructions: 20000002 cycles: 6987397 heartbeat IPC: 2.87321 cumulative IPC: 2.8623 (Simulation time: 0 hr 2 min 12 sec) 
Heartbeat CPU 0 instructions: 30000002 cycles: 10506806 heartbeat IPC: 2.84139 cumulative IPC: 2.85529 (Simulation time: 0 hr 3 min 17 sec) 
Heartbeat CPU 0 instructions: 40000001 cycles: 14026270 heartbeat IPC: 2.84134 cumulative IPC: 2.85179 (Simulation time: 0 hr 4 min 20 sec) 
Heartbeat CPU 0 instructions: 50000001 cycles: 17566588 heartbeat IPC: 2.8246 cumulative IPC: 2.84631 (Simulation time: 0 hr 5 min 23 sec) 

Warmup complete CPU 0 instructions: 50000001 cycles: 17566588 (Simulation time: 0 hr 5 min 23 sec) 

Heartbeat CPU 0 instructions: 60000000 cycles: 26519324 heartbeat IPC: 1.11698 cumulative IPC: 1.11698 (Simulation time: 0 hr 6 min 14 sec) 
Heartbeat CPU 0 instructions: 70000002 cycles: 35166435 heartbeat IPC: 1.15646 cumulative IPC: 1.13637 (Simulation time: 0 hr 7 min 4 sec) 
Heartbeat CPU 0 instructions: 80000003 cycles: 44171352 heartbeat IPC: 1.1105 cumulative IPC: 1.12762 (Simulation time: 0 hr 7 min 55 sec) 
Heartbeat CPU 0 instructions: 90000001 cycles: 52824317 heartbeat IPC: 1.15567 cumulative IPC: 1.1345 (Simulation time: 0 hr 8 min 44 sec) 
Heartbeat CPU 0 instructions: 100000000 cycles: 61838897 heartbeat IPC: 1.10931 cumulative IPC: 1.12937 (Simulation time: 0 hr 9 min 33 sec) 
Finished CPU 0 instructions: 50000002 cycles: 44272315 cumulative IPC: 1.12937 (Simulation time: 0 hr 9 min 33 sec) 

ChampSim completed all CPUs

Region of Interest Statistics

CPU 0 cumulative IPC: 1.12937 instructions: 50000002 cycles: 44272315

SHEET
IPC : 1.12937

L1D TOTAL     ACCESS:   18054464  HIT:   17674910  MISS:     379554
L1D LOAD      ACCESS:    7245019  HIT:    7109848  MISS:     135171
L1D RFO       ACCESS:    3703572  HIT:    3599062  MISS:     104510
L1D PREFETCH  ACCESS:    7105873  HIT:    6966000  MISS:     139873
L1D WRITEBACK ACCESS:          0  HIT:          0  MISS:          0
L1D PREFETCH  REQUESTED:    7250227  ISSUED:    7167437  USEFUL:      45161  USELESS:      94717
L1D AVERAGE MISS LATENCY: 33.8726 cycles
L1D

SHEET
L1D-total_access : 18054464
L1D-total_hit : 17674910
L1D-total_miss : 379554
L1D-load_access : 7245019
L1D-load_hit : 7109848
L1D-load_miss : 135171
L1D-rfo_access : 3703572
L1D-rfo_hit : 3599062
L1D-rfo_miss : 104510
L1D-prefetch_access : 7105873
L1D-prefetch_hit : 6966000
L1D-prefetch_miss : 139873
L1D-writeback_access : 0
L1D-writeback_hit : 0
L1D-writeback_miss : 0
L1D-prefetch_requested : 7250227
L1D-prefetch_issued : 7167437
L1D-prefetch_useful : 45161
L1D-prefetch_useless : 94717
L1D-Avg_miss_latency : 33.8726
L1D-Morteza_fill_l2_prefetches : 0

L1I TOTAL     ACCESS:   18358398  HIT:   17068982  MISS:    1289416
L1I LOAD      ACCESS:    8978522  HIT:    8776542  MISS:     201980
L1I RFO       ACCESS:          0  HIT:          0  MISS:          0
L1I PREFETCH  ACCESS:    9379876  HIT:    8292440  MISS:    1087436
L1I WRITEBACK ACCESS:          0  HIT:          0  MISS:          0
L1I PREFETCH  REQUESTED:   10822060  ISSUED:   10099664  USEFUL:     605680  USELESS:     481736
L1I AVERAGE MISS LATENCY: 14.7491 cycles
L1I

SHEET
L1I-total_access : 18358398
L1I-total_hit : 17068982
L1I-total_miss : 1289416
L1I-load_access : 8978522
L1I-load_hit : 8776542
L1I-load_miss : 201980
L1I-rfo_access : 0
L1I-rfo_hit : 0
L1I-rfo_miss : 0
L1I-prefetch_access : 9379876
L1I-prefetch_hit : 8292440
L1I-prefetch_miss : 1087436
L1I-writeback_access : 0
L1I-writeback_hit : 0
L1I-writeback_miss : 0
L1I-prefetch_requested : 10822060
L1I-prefetch_issued : 10099664
L1I-prefetch_useful : 605680
L1I-prefetch_useless : 481736
L1I-Avg_miss_latency : 14.7491
L1I-Morteza_fill_l2_prefetches : 0

L2C TOTAL     ACCESS:    2514665  HIT:    2390494  MISS:     124171
L2C LOAD      ACCESS:     282373  HIT:     246985  MISS:      35388
L2C RFO       ACCESS:     104185  HIT:      70129  MISS:      34056
L2C PREFETCH  ACCESS:    1988812  HIT:    1934183  MISS:      54629
L2C WRITEBACK ACCESS:     139295  HIT:     139197  MISS:         98
L2C PREFETCH  REQUESTED:    1537665  ISSUED:    1537489  USEFUL:       4880  USELESS:      49997
L2C AVERAGE MISS LATENCY: 66.4742 cycles
L2C

SHEET
L2C-total_access : 2514665
L2C-total_hit : 2390494
L2C-total_miss : 124171
L2C-load_access : 282373
L2C-load_hit : 246985
L2C-load_miss : 35388
L2C-rfo_access : 104185
L2C-rfo_hit : 70129
L2C-rfo_miss : 34056
L2C-prefetch_access : 1988812
L2C-prefetch_hit : 1934183
L2C-prefetch_miss : 54629
L2C-writeback_access : 139295
L2C-writeback_hit : 139197
L2C-writeback_miss : 98
L2C-prefetch_requested : 1537665
L2C-prefetch_issued : 1537489
L2C-prefetch_useful : 4880
L2C-prefetch_useless : 49997
L2C-Avg_miss_latency : 66.4742
L2C-Morteza_fill_l2_prefetches : 716667

LLC TOTAL     ACCESS:     321188  HIT:     283347  MISS:      37841
LLC LOAD      ACCESS:      35386  HIT:      27101  MISS:       8285
LLC RFO       ACCESS:      34056  HIT:      26844  MISS:       7212
LLC PREFETCH  ACCESS:     206831  HIT:     184792  MISS:      22039
LLC WRITEBACK ACCESS:      44915  HIT:      44610  MISS:        305
LLC PREFETCH  REQUESTED:          0  ISSUED:          0  USEFUL:       1398  USELESS:      18791
LLC AVERAGE MISS LATENCY: 179.794 cycles
LLC

SHEET
LLC-total_access : 321188
LLC-total_hit : 283347
LLC-total_miss : 37841
LLC-load_access : 35386
LLC-load_hit : 27101
LLC-load_miss : 8285
LLC-rfo_access : 34056
LLC-rfo_hit : 26844
LLC-rfo_miss : 7212
LLC-prefetch_access : 206831
LLC-prefetch_hit : 184792
LLC-prefetch_miss : 22039
LLC-writeback_access : 44915
LLC-writeback_hit : 44610
LLC-writeback_miss : 305
LLC-prefetch_requested : 0
LLC-prefetch_issued : 0
LLC-prefetch_useful : 1398
LLC-prefetch_useless : 18791
LLC-Avg_miss_latency : 179.794
LLC-Morteza_fill_l2_prefetches : 141334

Major fault: 0 Minor fault: 4156



Printing Logs
statHeadFound: 779728
statHeadMissing: 347307
statStreamBufferHit: 11692770
statPrefetchEntryFound: 4810882
statCompactorMatch: 11790527
statStreamTrackerLookup: 12819805
statRecord: 1029278
statGetPointer: 1127035
statEnqueuePrefetch: 18897245
statPrefetchQueueIsFull: 180856
StreamBufferHitRate: 0.912086
Regions' size: 3097
next_region_correct: 543602
next_region_wrong: 482561
next_region_correct_prediction: 0.529742
statStreamBufferLookups: 923025960
statL1iLookups: 151177960
statCompactorLookups: 461512980
morteza: start

SHEET
mana_table_access_counter : 6020998
hobp_table_access_counter : 13616949
sab_access_counter : 16503652
srq_access_counter : 12498026

morteza: end
CPU 0 L1D next line prefetcher final stats

DRAM Statistics
 CHANNEL 0
 RQ ROW_BUFFER_HIT:       5550  ROW_BUFFER_MISS:      31985
 DBUS_CONGESTED:      21248
 WQ ROW_BUFFER_HIT:       1693  ROW_BUFFER_MISS:      15224  FULL:          0

 AVG_CONGESTED_CYCLE: 4

CPU 0 Branch Prediction Accuracy: 94.7729% MPKI: 9.72684 Average ROB Occupancy at Mispredict: 52.3037

Branch types
NOT_BRANCH: 40695430 81.3909%
BRANCH_DIRECT_JUMP: 422108 0.844216%
BRANCH_INDIRECT: 65 0.00013%
BRANCH_CONDITIONAL: 8105006 16.21%
BRANCH_DIRECT_CALL: 374913 0.749826%
BRANCH_INDIRECT_CALL: 13657 0.027314%
BRANCH_RETURN: 388556 0.777112%
BRANCH_OTHER: 0 0%

