Initialize SIGNATURE TABLE
ST_SET: 1
ST_WAY: 256
ST_TAG_BIT: 16
ST_TAG_MASK: ffff

Initialize PATTERN TABLE
PT_SET: 512
PT_WAY: 4
SIG_DELTA_BIT: 7
C_SIG_BIT: 4
C_DELTA_BIT: 4

Initialize PREFETCH FILTER
FILTER_SET: 1024
MANA initialize 
tds: 2 tdm: 4
size MANA SINGLE: 74 KB
size MANA NULTIPLE: 43 KB
size HOBPT: 5 KB
size SRQ: 0.0644531 KB
size SABs: 0.0402832 KB
size prefetch queue: 0.453125 KB
total: 122.558 KB

*** ChampSim Multicore Out-of-Order Simulator ***

Warmup Instructions: 50000000
Simulation Instructions: 50000000
Number of CPUs: 1
LLC sets: 2048
LLC ways: 16
Off-chip DRAM Size: 4096 MB Channels: 1 Width: 64-bit Data Rate: 3200 MT/s

CPU 0 runs /home/mbaradaran/ChampSim/dpc3_traces/server_026.champsimtrace.xz
CPU 0 L1D next line prefetcher
Heartbeat CPU 0 instructions: 10000000 cycles: 3528694 heartbeat IPC: 2.83391 cumulative IPC: 2.83391 (Simulation time: 0 hr 1 min 24 sec) 
Heartbeat CPU 0 instructions: 20000002 cycles: 7062823 heartbeat IPC: 2.82955 cumulative IPC: 2.83173 (Simulation time: 0 hr 3 min 0 sec) 
Heartbeat CPU 0 instructions: 30000000 cycles: 10587626 heartbeat IPC: 2.83704 cumulative IPC: 2.8335 (Simulation time: 0 hr 4 min 27 sec) 
Heartbeat CPU 0 instructions: 40000003 cycles: 14120656 heartbeat IPC: 2.83043 cumulative IPC: 2.83273 (Simulation time: 0 hr 6 min 0 sec) 
Heartbeat CPU 0 instructions: 50000000 cycles: 17646573 heartbeat IPC: 2.83614 cumulative IPC: 2.83341 (Simulation time: 0 hr 7 min 25 sec) 

Warmup complete CPU 0 instructions: 50000004 cycles: 17646574 (Simulation time: 0 hr 7 min 25 sec) 

*** Reached end of trace for Core: 0 Repeating trace: /home/mbaradaran/ChampSim/dpc3_traces/server_026.champsimtrace.xz
Heartbeat CPU 0 instructions: 60000000 cycles: 25048781 heartbeat IPC: 1.35095 cumulative IPC: 1.35095 (Simulation time: 0 hr 8 min 53 sec) 
Heartbeat CPU 0 instructions: 70000003 cycles: 32336826 heartbeat IPC: 1.37211 cumulative IPC: 1.36145 (Simulation time: 0 hr 10 min 13 sec) 
Heartbeat CPU 0 instructions: 80000002 cycles: 39728506 heartbeat IPC: 1.35287 cumulative IPC: 1.35858 (Simulation time: 0 hr 11 min 31 sec) 
Heartbeat CPU 0 instructions: 90000002 cycles: 47007828 heartbeat IPC: 1.37375 cumulative IPC: 1.36234 (Simulation time: 0 hr 12 min 56 sec) 
Heartbeat CPU 0 instructions: 100000000 cycles: 54371858 heartbeat IPC: 1.35795 cumulative IPC: 1.36146 (Simulation time: 0 hr 14 min 14 sec) 
Finished CPU 0 instructions: 50000000 cycles: 36725285 cumulative IPC: 1.36146 (Simulation time: 0 hr 14 min 14 sec) 

ChampSim completed all CPUs

Region of Interest Statistics

CPU 0 cumulative IPC: 1.36146 instructions: 50000000 cycles: 36725285

SHEET
IPC : 1.36146

L1D TOTAL     ACCESS:   20293644  HIT:   18647906  MISS:    1645738
L1D LOAD      ACCESS:    7184826  HIT:    6457224  MISS:     727602
L1D RFO       ACCESS:    6253459  HIT:    5966940  MISS:     286519
L1D PREFETCH  ACCESS:    6855359  HIT:    6223742  MISS:     631617
L1D WRITEBACK ACCESS:          0  HIT:          0  MISS:          0
L1D PREFETCH  REQUESTED:    7232404  ISSUED:    7097411  USEFUL:     153663  USELESS:     477963
L1D AVERAGE MISS LATENCY: 23.9287 cycles
L1D

SHEET
L1D-total_access : 20293644
L1D-total_hit : 18647906
L1D-total_miss : 1645738
L1D-load_access : 7184826
L1D-load_hit : 6457224
L1D-load_miss : 727602
L1D-rfo_access : 6253459
L1D-rfo_hit : 5966940
L1D-rfo_miss : 286519
L1D-prefetch_access : 6855359
L1D-prefetch_hit : 6223742
L1D-prefetch_miss : 631617
L1D-writeback_access : 0
L1D-writeback_hit : 0
L1D-writeback_miss : 0
L1D-prefetch_requested : 7232404
L1D-prefetch_issued : 7097411
L1D-prefetch_useful : 153663
L1D-prefetch_useless : 477963
L1D-Avg_miss_latency : 23.9287
L1D-Morteza_fill_l2_prefetches : 0

L1I TOTAL     ACCESS:   19061346  HIT:   15162374  MISS:    3898972
L1I LOAD      ACCESS:    9271275  HIT:    8407300  MISS:     863975
L1I RFO       ACCESS:          0  HIT:          0  MISS:          0
L1I PREFETCH  ACCESS:    9790071  HIT:    6755074  MISS:    3034997
L1I WRITEBACK ACCESS:          0  HIT:          0  MISS:          0
L1I PREFETCH  REQUESTED:   11150095  ISSUED:   11141939  USEFUL:    2084451  USELESS:     950583
L1I AVERAGE MISS LATENCY: 16.5316 cycles
L1I

SHEET
L1I-total_access : 19061346
L1I-total_hit : 15162374
L1I-total_miss : 3898972
L1I-load_access : 9271275
L1I-load_hit : 8407300
L1I-load_miss : 863975
L1I-rfo_access : 0
L1I-rfo_hit : 0
L1I-rfo_miss : 0
L1I-prefetch_access : 9790071
L1I-prefetch_hit : 6755074
L1I-prefetch_miss : 3034997
L1I-writeback_access : 0
L1I-writeback_hit : 0
L1I-writeback_miss : 0
L1I-prefetch_requested : 11150095
L1I-prefetch_issued : 11141939
L1I-prefetch_useful : 2084451
L1I-prefetch_useless : 950583
L1I-Avg_miss_latency : 16.5316
L1I-Morteza_fill_l2_prefetches : 0

L2C TOTAL     ACCESS:    7505915  HIT:    6626388  MISS:     879527
L2C LOAD      ACCESS:    1146238  HIT:     947776  MISS:     198462
L2C RFO       ACCESS:     284617  HIT:     188274  MISS:      96343
L2C PREFETCH  ACCESS:    5513916  HIT:    4935669  MISS:     578247
L2C WRITEBACK ACCESS:     561144  HIT:     554669  MISS:       6475
L2C PREFETCH  REQUESTED:    5999787  ISSUED:    5992148  USEFUL:      33921  USELESS:     543458
L2C AVERAGE MISS LATENCY: 38.4749 cycles
L2C

SHEET
L2C-total_access : 7505915
L2C-total_hit : 6626388
L2C-total_miss : 879527
L2C-load_access : 1146238
L2C-load_hit : 947776
L2C-load_miss : 198462
L2C-rfo_access : 284617
L2C-rfo_hit : 188274
L2C-rfo_miss : 96343
L2C-prefetch_access : 5513916
L2C-prefetch_hit : 4935669
L2C-prefetch_miss : 578247
L2C-writeback_access : 561144
L2C-writeback_hit : 554669
L2C-writeback_miss : 6475
L2C-prefetch_requested : 5999787
L2C-prefetch_issued : 5992148
L2C-prefetch_useful : 33921
L2C-prefetch_useless : 543458
L2C-Avg_miss_latency : 38.4749
L2C-Morteza_fill_l2_prefetches : 1436594

LLC TOTAL     ACCESS:    2654488  HIT:    2619101  MISS:      35387
LLC LOAD      ACCESS:     198317  HIT:     194573  MISS:       3744
LLC RFO       ACCESS:      96236  HIT:      81789  MISS:      14447
LLC PREFETCH  ACCESS:    2193285  HIT:    2176328  MISS:      16957
LLC WRITEBACK ACCESS:     166650  HIT:     166411  MISS:        239
LLC PREFETCH  REQUESTED:          0  ISSUED:          0  USEFUL:       1039  USELESS:      15847
LLC AVERAGE MISS LATENCY: 186.908 cycles
LLC

SHEET
LLC-total_access : 2654488
LLC-total_hit : 2619101
LLC-total_miss : 35387
LLC-load_access : 198317
LLC-load_hit : 194573
LLC-load_miss : 3744
LLC-rfo_access : 96236
LLC-rfo_hit : 81789
LLC-rfo_miss : 14447
LLC-prefetch_access : 2193285
LLC-prefetch_hit : 2176328
LLC-prefetch_miss : 16957
LLC-writeback_access : 166650
LLC-writeback_hit : 166411
LLC-writeback_miss : 239
LLC-prefetch_requested : 0
LLC-prefetch_issued : 0
LLC-prefetch_useful : 1039
LLC-prefetch_useless : 15847
LLC-Avg_miss_latency : 186.908
LLC-Morteza_fill_l2_prefetches : 1623517

Major fault: 0 Minor fault: 2231



Printing Logs
statHeadFound: 1856072
statHeadMissing: 2369012
statStreamBufferHit: 9997156
statPrefetchEntryFound: 8120318
statCompactorMatch: 11020768
statStreamTrackerLookup: 14222240
statRecord: 3201472
statGetPointer: 4225084
statEnqueuePrefetch: 22194966
statPrefetchQueueIsFull: 8
StreamBufferHitRate: 0.702924
Regions' size: 2376
next_region_correct: 2126790
next_region_wrong: 1072298
next_region_correct_prediction: 0.664811
statStreamBufferLookups: 142222400
statL1iLookups: 177559728
statCompactorLookups: 227555840
morteza: start

SHEET
mana_table_access_counter : 6826455
mana_table_multiple_access_counter : 6354974
hobp_table_access_counter : 54732831
sab_access_counter : 18117474
srq_access_counter : 16369869

morteza: end
CPU 0 L1D next line prefetcher final stats

DRAM Statistics
 CHANNEL 0
 RQ ROW_BUFFER_HIT:      12596  ROW_BUFFER_MISS:      22538
 DBUS_CONGESTED:      23800
 WQ ROW_BUFFER_HIT:       1557  ROW_BUFFER_MISS:      14238  FULL:          0

 AVG_CONGESTED_CYCLE: 6

CPU 0 Branch Prediction Accuracy: 99.822% MPKI: 0.32584 Average ROB Occupancy at Mispredict: 150.623

Branch types
NOT_BRANCH: 40848545 81.6971%
BRANCH_DIRECT_JUMP: 522045 1.04409%
BRANCH_INDIRECT: 204034 0.408068%
BRANCH_CONDITIONAL: 6212957 12.4259%
BRANCH_DIRECT_CALL: 932390 1.86478%
BRANCH_INDIRECT_CALL: 173764 0.347528%
BRANCH_RETURN: 1106151 2.2123%
BRANCH_OTHER: 0 0%

