Initialize SIGNATURE TABLE
ST_SET: 1
ST_WAY: 256
ST_TAG_BIT: 16
ST_TAG_MASK: ffff

Initialize PATTERN TABLE
PT_SET: 512
PT_WAY: 4
SIG_DELTA_BIT: 7
C_SIG_BIT: 4
C_DELTA_BIT: 4

Initialize PREFETCH FILTER
FILTER_SET: 1024
MANA initialize 
tds: 2 tdm: 4
size MANA SINGLE: 74 KB
size MANA NULTIPLE: 43 KB
size HOBPT: 5 KB
size SRQ: 0.0644531 KB
size SABs: 0.0402832 KB
size prefetch queue: 0.453125 KB
total: 122.558 KB

*** ChampSim Multicore Out-of-Order Simulator ***

Warmup Instructions: 50000000
Simulation Instructions: 50000000
Number of CPUs: 1
LLC sets: 2048
LLC ways: 16
Off-chip DRAM Size: 4096 MB Channels: 1 Width: 64-bit Data Rate: 3200 MT/s

CPU 0 runs /home/mbaradaran/ChampSim/dpc3_traces/server_034.champsimtrace.xz
CPU 0 L1D next line prefetcher
Heartbeat CPU 0 instructions: 10000000 cycles: 3331075 heartbeat IPC: 3.00203 cumulative IPC: 3.00203 (Simulation time: 0 hr 1 min 22 sec) 
Heartbeat CPU 0 instructions: 20000002 cycles: 6655291 heartbeat IPC: 3.00823 cumulative IPC: 3.00513 (Simulation time: 0 hr 2 min 50 sec) 
Heartbeat CPU 0 instructions: 30000003 cycles: 9987922 heartbeat IPC: 3.00063 cumulative IPC: 3.00363 (Simulation time: 0 hr 4 min 18 sec) 
Heartbeat CPU 0 instructions: 40000001 cycles: 13318304 heartbeat IPC: 3.00266 cumulative IPC: 3.00339 (Simulation time: 0 hr 5 min 47 sec) 
Heartbeat CPU 0 instructions: 50000000 cycles: 16647119 heartbeat IPC: 3.00407 cumulative IPC: 3.00352 (Simulation time: 0 hr 7 min 13 sec) 

Warmup complete CPU 0 instructions: 50000002 cycles: 16647120 (Simulation time: 0 hr 7 min 13 sec) 

Heartbeat CPU 0 instructions: 60000002 cycles: 22816411 heartbeat IPC: 1.62093 cumulative IPC: 1.62093 (Simulation time: 0 hr 8 min 33 sec) 
Heartbeat CPU 0 instructions: 70000003 cycles: 29353679 heartbeat IPC: 1.52969 cumulative IPC: 1.57399 (Simulation time: 0 hr 9 min 59 sec) 
Heartbeat CPU 0 instructions: 80000002 cycles: 35586954 heartbeat IPC: 1.60429 cumulative IPC: 1.58396 (Simulation time: 0 hr 11 min 23 sec) 
Heartbeat CPU 0 instructions: 90000002 cycles: 41815753 heartbeat IPC: 1.60545 cumulative IPC: 1.58928 (Simulation time: 0 hr 12 min 48 sec) 
Heartbeat CPU 0 instructions: 100000002 cycles: 48028136 heartbeat IPC: 1.60969 cumulative IPC: 1.59332 (Simulation time: 0 hr 14 min 6 sec) 
Finished CPU 0 instructions: 50000000 cycles: 31381016 cumulative IPC: 1.59332 (Simulation time: 0 hr 14 min 6 sec) 

ChampSim completed all CPUs

Region of Interest Statistics

CPU 0 cumulative IPC: 1.59332 instructions: 50000000 cycles: 31381016

SHEET
IPC : 1.59332

L1D TOTAL     ACCESS:   18602552  HIT:   17178439  MISS:    1424113
L1D LOAD      ACCESS:    6309227  HIT:    5653759  MISS:     655468
L1D RFO       ACCESS:    6164744  HIT:    6021601  MISS:     143143
L1D PREFETCH  ACCESS:    6128581  HIT:    5503079  MISS:     625502
L1D WRITEBACK ACCESS:          0  HIT:          0  MISS:          0
L1D PREFETCH  REQUESTED:    6344471  ISSUED:    6262494  USEFUL:     141029  USELESS:     484439
L1D AVERAGE MISS LATENCY: 17.4865 cycles
L1D

SHEET
L1D-total_access : 18602552
L1D-total_hit : 17178439
L1D-total_miss : 1424113
L1D-load_access : 6309227
L1D-load_hit : 5653759
L1D-load_miss : 655468
L1D-rfo_access : 6164744
L1D-rfo_hit : 6021601
L1D-rfo_miss : 143143
L1D-prefetch_access : 6128581
L1D-prefetch_hit : 5503079
L1D-prefetch_miss : 625502
L1D-writeback_access : 0
L1D-writeback_hit : 0
L1D-writeback_miss : 0
L1D-prefetch_requested : 6344471
L1D-prefetch_issued : 6262494
L1D-prefetch_useful : 141029
L1D-prefetch_useless : 484439
L1D-Avg_miss_latency : 17.4865
L1D-Morteza_fill_l2_prefetches : 0

L1I TOTAL     ACCESS:   20846611  HIT:   16831438  MISS:    4015173
L1I LOAD      ACCESS:    9503160  HIT:    8782588  MISS:     720572
L1I RFO       ACCESS:          0  HIT:          0  MISS:          0
L1I PREFETCH  ACCESS:   11343451  HIT:    8048850  MISS:    3294601
L1I WRITEBACK ACCESS:          0  HIT:          0  MISS:          0
L1I PREFETCH  REQUESTED:   12874116  ISSUED:   12849304  USEFUL:    2748037  USELESS:     546561
L1I AVERAGE MISS LATENCY: 13.6615 cycles
L1I

SHEET
L1I-total_access : 20846611
L1I-total_hit : 16831438
L1I-total_miss : 4015173
L1I-load_access : 9503160
L1I-load_hit : 8782588
L1I-load_miss : 720572
L1I-rfo_access : 0
L1I-rfo_hit : 0
L1I-rfo_miss : 0
L1I-prefetch_access : 11343451
L1I-prefetch_hit : 8048850
L1I-prefetch_miss : 3294601
L1I-writeback_access : 0
L1I-writeback_hit : 0
L1I-writeback_miss : 0
L1I-prefetch_requested : 12874116
L1I-prefetch_issued : 12849304
L1I-prefetch_useful : 2748037
L1I-prefetch_useless : 546561
L1I-Avg_miss_latency : 13.6615
L1I-Morteza_fill_l2_prefetches : 0

L2C TOTAL     ACCESS:    7327121  HIT:    7228543  MISS:      98578
L2C LOAD      ACCESS:    1002196  HIT:     964291  MISS:      37905
L2C RFO       ACCESS:     141346  HIT:     133112  MISS:       8234
L2C PREFETCH  ACCESS:    5832684  HIT:    5781400  MISS:      51284
L2C WRITEBACK ACCESS:     350895  HIT:     349740  MISS:       1155
L2C PREFETCH  REQUESTED:    6067323  ISSUED:    6056873  USEFUL:       3674  USELESS:      46507
L2C AVERAGE MISS LATENCY: 41.1792 cycles
L2C

SHEET
L2C-total_access : 7327121
L2C-total_hit : 7228543
L2C-total_miss : 98578
L2C-load_access : 1002196
L2C-load_hit : 964291
L2C-load_miss : 37905
L2C-rfo_access : 141346
L2C-rfo_hit : 133112
L2C-rfo_miss : 8234
L2C-prefetch_access : 5832684
L2C-prefetch_hit : 5781400
L2C-prefetch_miss : 51284
L2C-writeback_access : 350895
L2C-writeback_hit : 349740
L2C-writeback_miss : 1155
L2C-prefetch_requested : 6067323
L2C-prefetch_issued : 6056873
L2C-prefetch_useful : 3674
L2C-prefetch_useless : 46507
L2C-Avg_miss_latency : 41.1792
L2C-Morteza_fill_l2_prefetches : 1560669

LLC TOTAL     ACCESS:    1684302  HIT:    1671441  MISS:      12861
LLC LOAD      ACCESS:      37772  HIT:      35007  MISS:       2765
LLC RFO       ACCESS:       8234  HIT:       7976  MISS:        258
LLC PREFETCH  ACCESS:    1600400  HIT:    1590641  MISS:       9759
LLC WRITEBACK ACCESS:      37896  HIT:      37817  MISS:         79
LLC PREFETCH  REQUESTED:          0  ISSUED:          0  USEFUL:       2885  USELESS:       4581
LLC AVERAGE MISS LATENCY: 152.015 cycles
LLC

SHEET
LLC-total_access : 1684302
LLC-total_hit : 1671441
LLC-total_miss : 12861
LLC-load_access : 37772
LLC-load_hit : 35007
LLC-load_miss : 2765
LLC-rfo_access : 8234
LLC-rfo_hit : 7976
LLC-rfo_miss : 258
LLC-prefetch_access : 1600400
LLC-prefetch_hit : 1590641
LLC-prefetch_miss : 9759
LLC-writeback_access : 37896
LLC-writeback_hit : 37817
LLC-writeback_miss : 79
LLC-prefetch_requested : 0
LLC-prefetch_issued : 0
LLC-prefetch_useful : 2885
LLC-prefetch_useless : 4581
LLC-Avg_miss_latency : 152.015
LLC-Morteza_fill_l2_prefetches : 1545822

Major fault: 0 Minor fault: 1229



Printing Logs
statHeadFound: 1952712
statHeadMissing: 1804384
statStreamBufferHit: 11373574
statPrefetchEntryFound: 8858477
statCompactorMatch: 11674820
statStreamTrackerLookup: 15130670
statRecord: 3455850
statGetPointer: 3757096
statEnqueuePrefetch: 25636040
statPrefetchQueueIsFull: 1397
StreamBufferHitRate: 0.75169
Regions' size: 1493
next_region_correct: 2510343
next_region_wrong: 944006
next_region_correct_prediction: 0.72672
statStreamBufferLookups: 151306700
statL1iLookups: 205088320
statCompactorLookups: 242090720
morteza: start

SHEET
mana_table_access_counter : 8070764
mana_table_multiple_access_counter : 6199743
hobp_table_access_counter : 52743490
sab_access_counter : 20232051
srq_access_counter : 17225258

morteza: end
CPU 0 L1D next line prefetcher final stats

DRAM Statistics
 CHANNEL 0
 RQ ROW_BUFFER_HIT:       3782  ROW_BUFFER_MISS:       8996
 DBUS_CONGESTED:       5572
 WQ ROW_BUFFER_HIT:        915  ROW_BUFFER_MISS:       2638  FULL:          0

 AVG_CONGESTED_CYCLE: 5

CPU 0 Branch Prediction Accuracy: 99.926% MPKI: 0.14472 Average ROB Occupancy at Mispredict: 204.027

Branch types
NOT_BRANCH: 40220921 80.4418%
BRANCH_DIRECT_JUMP: 771319 1.54264%
BRANCH_INDIRECT: 108663 0.217326%
BRANCH_CONDITIONAL: 6375027 12.7501%
BRANCH_DIRECT_CALL: 1049632 2.09926%
BRANCH_INDIRECT_CALL: 212281 0.424562%
BRANCH_RETURN: 1261922 2.52384%
BRANCH_OTHER: 0 0%

