Initialize SIGNATURE TABLE
ST_SET: 1
ST_WAY: 256
ST_TAG_BIT: 16
ST_TAG_MASK: ffff

Initialize PATTERN TABLE
PT_SET: 512
PT_WAY: 4
SIG_DELTA_BIT: 7
C_SIG_BIT: 4
C_DELTA_BIT: 4

Initialize PREFETCH FILTER
FILTER_SET: 1024
MANA initialize 
tds: 2 tdm: 4
size MANA SINGLE: 74 KB
size MANA NULTIPLE: 43 KB
size HOBPT: 5 KB
size SRQ: 0.0644531 KB
size SABs: 0.0402832 KB
size prefetch queue: 0.453125 KB
total: 122.558 KB

*** ChampSim Multicore Out-of-Order Simulator ***

Warmup Instructions: 50000000
Simulation Instructions: 50000000
Number of CPUs: 1
LLC sets: 2048
LLC ways: 16
Off-chip DRAM Size: 4096 MB Channels: 1 Width: 64-bit Data Rate: 3200 MT/s

CPU 0 runs /home/mbaradaran/ChampSim/dpc3_traces/server_010.champsimtrace.xz
CPU 0 L1D next line prefetcher
Heartbeat CPU 0 instructions: 10000000 cycles: 3196821 heartbeat IPC: 3.12811 cumulative IPC: 3.12811 (Simulation time: 0 hr 1 min 22 sec) 
Heartbeat CPU 0 instructions: 20000002 cycles: 6389615 heartbeat IPC: 3.13205 cumulative IPC: 3.13008 (Simulation time: 0 hr 2 min 41 sec) 
Heartbeat CPU 0 instructions: 30000001 cycles: 9585458 heartbeat IPC: 3.12906 cumulative IPC: 3.12974 (Simulation time: 0 hr 4 min 3 sec) 
Heartbeat CPU 0 instructions: 40000000 cycles: 12777608 heartbeat IPC: 3.13268 cumulative IPC: 3.13048 (Simulation time: 0 hr 5 min 27 sec) 
Heartbeat CPU 0 instructions: 50000003 cycles: 15975607 heartbeat IPC: 3.12696 cumulative IPC: 3.12977 (Simulation time: 0 hr 6 min 48 sec) 

Warmup complete CPU 0 instructions: 50000003 cycles: 15975607 (Simulation time: 0 hr 6 min 48 sec) 

Heartbeat CPU 0 instructions: 60000001 cycles: 23482924 heartbeat IPC: 1.33203 cumulative IPC: 1.33203 (Simulation time: 0 hr 8 min 1 sec) 
Heartbeat CPU 0 instructions: 70000000 cycles: 31098100 heartbeat IPC: 1.31317 cumulative IPC: 1.32253 (Simulation time: 0 hr 9 min 18 sec) 
Heartbeat CPU 0 instructions: 80000001 cycles: 38793467 heartbeat IPC: 1.29948 cumulative IPC: 1.31476 (Simulation time: 0 hr 10 min 26 sec) 
Heartbeat CPU 0 instructions: 90000002 cycles: 46231937 heartbeat IPC: 1.34436 cumulative IPC: 1.32204 (Simulation time: 0 hr 11 min 34 sec) 
Heartbeat CPU 0 instructions: 100000003 cycles: 66991426 heartbeat IPC: 0.481707 cumulative IPC: 0.980088 (Simulation time: 0 hr 13 min 28 sec) 
Finished CPU 0 instructions: 50000000 cycles: 51015819 cumulative IPC: 0.980088 (Simulation time: 0 hr 13 min 28 sec) 

ChampSim completed all CPUs

Region of Interest Statistics

CPU 0 cumulative IPC: 0.980088 instructions: 50000000 cycles: 51015819

SHEET
IPC : 0.980088

L1D TOTAL     ACCESS:   20159142  HIT:   16933360  MISS:    3225782
L1D LOAD      ACCESS:    7830048  HIT:    6237888  MISS:    1592160
L1D RFO       ACCESS:    4721750  HIT:    4627174  MISS:      94576
L1D PREFETCH  ACCESS:    7607344  HIT:    6068298  MISS:    1539046
L1D WRITEBACK ACCESS:          0  HIT:          0  MISS:          0
L1D PREFETCH  REQUESTED:    7863869  ISSUED:    7767158  USEFUL:     118233  USELESS:    1420784
L1D AVERAGE MISS LATENCY: 22.8583 cycles
L1D

SHEET
L1D-total_access : 20159142
L1D-total_hit : 16933360
L1D-total_miss : 3225782
L1D-load_access : 7830048
L1D-load_hit : 6237888
L1D-load_miss : 1592160
L1D-rfo_access : 4721750
L1D-rfo_hit : 4627174
L1D-rfo_miss : 94576
L1D-prefetch_access : 7607344
L1D-prefetch_hit : 6068298
L1D-prefetch_miss : 1539046
L1D-writeback_access : 0
L1D-writeback_hit : 0
L1D-writeback_miss : 0
L1D-prefetch_requested : 7863869
L1D-prefetch_issued : 7767158
L1D-prefetch_useful : 118233
L1D-prefetch_useless : 1420784
L1D-Avg_miss_latency : 22.8583
L1D-Morteza_fill_l2_prefetches : 0

L1I TOTAL     ACCESS:   19950111  HIT:   17941744  MISS:    2008367
L1I LOAD      ACCESS:    9919346  HIT:    9572101  MISS:     347245
L1I RFO       ACCESS:          0  HIT:          0  MISS:          0
L1I PREFETCH  ACCESS:   10030765  HIT:    8369643  MISS:    1661122
L1I WRITEBACK ACCESS:          0  HIT:          0  MISS:          0
L1I PREFETCH  REQUESTED:   11174313  ISSUED:   11065386  USEFUL:    1194160  USELESS:     467002
L1I AVERAGE MISS LATENCY: 26.2439 cycles
L1I

SHEET
L1I-total_access : 19950111
L1I-total_hit : 17941744
L1I-total_miss : 2008367
L1I-load_access : 9919346
L1I-load_hit : 9572101
L1I-load_miss : 347245
L1I-rfo_access : 0
L1I-rfo_hit : 0
L1I-rfo_miss : 0
L1I-prefetch_access : 10030765
L1I-prefetch_hit : 8369643
L1I-prefetch_miss : 1661122
L1I-writeback_access : 0
L1I-writeback_hit : 0
L1I-writeback_miss : 0
L1I-prefetch_requested : 11174313
L1I-prefetch_issued : 11065386
L1I-prefetch_useful : 1194160
L1I-prefetch_useless : 467002
L1I-Avg_miss_latency : 26.2439
L1I-Morteza_fill_l2_prefetches : 0

L2C TOTAL     ACCESS:    6693812  HIT:    5572885  MISS:    1120927
L2C LOAD      ACCESS:    1754147  HIT:    1481719  MISS:     272428
L2C RFO       ACCESS:      93522  HIT:      49579  MISS:      43943
L2C PREFETCH  ACCESS:    4580754  HIT:    3777183  MISS:     803571
L2C WRITEBACK ACCESS:     265389  HIT:     264404  MISS:        985
L2C PREFETCH  REQUESTED:    6459429  ISSUED:    6456737  USEFUL:      45127  USELESS:     759205
L2C AVERAGE MISS LATENCY: 47.7717 cycles
L2C

SHEET
L2C-total_access : 6693812
L2C-total_hit : 5572885
L2C-total_miss : 1120927
L2C-load_access : 1754147
L2C-load_hit : 1481719
L2C-load_miss : 272428
L2C-rfo_access : 93522
L2C-rfo_hit : 49579
L2C-rfo_miss : 43943
L2C-prefetch_access : 4580754
L2C-prefetch_hit : 3777183
L2C-prefetch_miss : 803571
L2C-writeback_access : 265389
L2C-writeback_hit : 264404
L2C-writeback_miss : 985
L2C-prefetch_requested : 6459429
L2C-prefetch_issued : 6456737
L2C-prefetch_useful : 45127
L2C-prefetch_useless : 759205
L2C-Avg_miss_latency : 47.7717
L2C-Morteza_fill_l2_prefetches : 1209614

LLC TOTAL     ACCESS:    2460198  HIT:    2317314  MISS:     142884
LLC LOAD      ACCESS:     272160  HIT:     251809  MISS:      20351
LLC RFO       ACCESS:      43936  HIT:      34019  MISS:       9917
LLC PREFETCH  ACCESS:    1996003  HIT:    1883659  MISS:     112344
LLC WRITEBACK ACCESS:     148099  HIT:     147827  MISS:        272
LLC PREFETCH  REQUESTED:          0  ISSUED:          0  USEFUL:      10119  USELESS:     102150
LLC AVERAGE MISS LATENCY: 173.899 cycles
LLC

SHEET
LLC-total_access : 2460198
LLC-total_hit : 2317314
LLC-total_miss : 142884
LLC-load_access : 272160
LLC-load_hit : 251809
LLC-load_miss : 20351
LLC-rfo_access : 43936
LLC-rfo_hit : 34019
LLC-rfo_miss : 9917
LLC-prefetch_access : 1996003
LLC-prefetch_hit : 1883659
LLC-prefetch_miss : 112344
LLC-writeback_access : 148099
LLC-writeback_hit : 147827
LLC-writeback_miss : 272
LLC-prefetch_requested : 0
LLC-prefetch_issued : 0
LLC-prefetch_useful : 10119
LLC-prefetch_useless : 102150
LLC-Avg_miss_latency : 173.899
LLC-Morteza_fill_l2_prefetches : 1187154

Major fault: 0 Minor fault: 5655



Printing Logs
statHeadFound: 1518183
statHeadMissing: 988334
statStreamBufferHit: 10435661
statPrefetchEntryFound: 6787380
statCompactorMatch: 10568094
statStreamTrackerLookup: 12942178
statRecord: 2374084
statGetPointer: 2506517
statEnqueuePrefetch: 22416753
statPrefetchQueueIsFull: 1150
StreamBufferHitRate: 0.80633
Regions' size: 4002
next_region_correct: 1870212
next_region_wrong: 499862
next_region_correct_prediction: 0.789094
statStreamBufferLookups: 129421780
statL1iLookups: 179334024
statCompactorLookups: 207074848
morteza: start

SHEET
mana_table_access_counter : 4374990
mana_table_multiple_access_counter : 6311499
hobp_table_access_counter : 36346499
sab_access_counter : 17223041
srq_access_counter : 13558318

morteza: end
CPU 0 L1D next line prefetcher final stats

DRAM Statistics
 CHANNEL 0
 RQ ROW_BUFFER_HIT:      22491  ROW_BUFFER_MISS:     120117
 DBUS_CONGESTED:      65301
 WQ ROW_BUFFER_HIT:      10397  ROW_BUFFER_MISS:      45225  FULL:          0

 AVG_CONGESTED_CYCLE: 5

CPU 0 Branch Prediction Accuracy: 99.5528% MPKI: 0.89798 Average ROB Occupancy at Mispredict: 114.277

Branch types
NOT_BRANCH: 39958791 79.9176%
BRANCH_DIRECT_JUMP: 449946 0.899892%
BRANCH_INDIRECT: 140210 0.28042%
BRANCH_CONDITIONAL: 7679677 15.3594%
BRANCH_DIRECT_CALL: 701578 1.40316%
BRANCH_INDIRECT_CALL: 168971 0.337942%
BRANCH_RETURN: 900560 1.80112%
BRANCH_OTHER: 0 0%

