Initialize SIGNATURE TABLE
ST_SET: 1
ST_WAY: 256
ST_TAG_BIT: 16
ST_TAG_MASK: ffff

Initialize PATTERN TABLE
PT_SET: 512
PT_WAY: 4
SIG_DELTA_BIT: 7
C_SIG_BIT: 4
C_DELTA_BIT: 4

Initialize PREFETCH FILTER
FILTER_SET: 1024
MANA initialize 
tds: 2 tdm: 4
size MANA SINGLE: 74 KB
size MANA NULTIPLE: 43 KB
size HOBPT: 5 KB
size SRQ: 0.0644531 KB
size SABs: 0.0402832 KB
size prefetch queue: 0.453125 KB
total: 122.558 KB

*** ChampSim Multicore Out-of-Order Simulator ***

Warmup Instructions: 50000000
Simulation Instructions: 50000000
Number of CPUs: 1
LLC sets: 2048
LLC ways: 16
Off-chip DRAM Size: 4096 MB Channels: 1 Width: 64-bit Data Rate: 3200 MT/s

CPU 0 runs /home/mbaradaran/ChampSim/dpc3_traces/server_024.champsimtrace.xz
CPU 0 L1D next line prefetcher
Heartbeat CPU 0 instructions: 10000000 cycles: 3501097 heartbeat IPC: 2.85625 cumulative IPC: 2.85625 (Simulation time: 0 hr 1 min 21 sec) 
Heartbeat CPU 0 instructions: 20000002 cycles: 6995206 heartbeat IPC: 2.86196 cumulative IPC: 2.8591 (Simulation time: 0 hr 2 min 41 sec) 
Heartbeat CPU 0 instructions: 30000000 cycles: 10499709 heartbeat IPC: 2.85347 cumulative IPC: 2.85722 (Simulation time: 0 hr 4 min 4 sec) 
Heartbeat CPU 0 instructions: 40000000 cycles: 14001142 heartbeat IPC: 2.85597 cumulative IPC: 2.85691 (Simulation time: 0 hr 5 min 28 sec) 
Heartbeat CPU 0 instructions: 50000001 cycles: 17492568 heartbeat IPC: 2.86416 cumulative IPC: 2.85836 (Simulation time: 0 hr 6 min 50 sec) 

Warmup complete CPU 0 instructions: 50000001 cycles: 17492568 (Simulation time: 0 hr 6 min 50 sec) 

Heartbeat CPU 0 instructions: 60000003 cycles: 24683071 heartbeat IPC: 1.39072 cumulative IPC: 1.39072 (Simulation time: 0 hr 8 min 16 sec) 
Heartbeat CPU 0 instructions: 70000000 cycles: 31900088 heartbeat IPC: 1.38561 cumulative IPC: 1.38816 (Simulation time: 0 hr 9 min 36 sec) 
*** Reached end of trace for Core: 0 Repeating trace: /home/mbaradaran/ChampSim/dpc3_traces/server_024.champsimtrace.xz
Heartbeat CPU 0 instructions: 80000001 cycles: 39075511 heartbeat IPC: 1.39365 cumulative IPC: 1.38999 (Simulation time: 0 hr 10 min 52 sec) 
Heartbeat CPU 0 instructions: 90000003 cycles: 46312913 heartbeat IPC: 1.38171 cumulative IPC: 1.38791 (Simulation time: 0 hr 12 min 7 sec) 
Heartbeat CPU 0 instructions: 100000002 cycles: 53528069 heartbeat IPC: 1.38597 cumulative IPC: 1.38752 (Simulation time: 0 hr 13 min 26 sec) 
Finished CPU 0 instructions: 50000001 cycles: 36035501 cumulative IPC: 1.38752 (Simulation time: 0 hr 13 min 26 sec) 

ChampSim completed all CPUs

Region of Interest Statistics

CPU 0 cumulative IPC: 1.38752 instructions: 50000001 cycles: 36035501

SHEET
IPC : 1.38752

L1D TOTAL     ACCESS:   20166783  HIT:   18648550  MISS:    1518233
L1D LOAD      ACCESS:    7163348  HIT:    6484383  MISS:     678965
L1D RFO       ACCESS:    6162122  HIT:    5888216  MISS:     273906
L1D PREFETCH  ACCESS:    6841313  HIT:    6275951  MISS:     565362
L1D WRITEBACK ACCESS:          0  HIT:          0  MISS:          0
L1D PREFETCH  REQUESTED:    7217026  ISSUED:    7101209  USEFUL:     137713  USELESS:     427653
L1D AVERAGE MISS LATENCY: 25.2049 cycles
L1D

SHEET
L1D-total_access : 20166783
L1D-total_hit : 18648550
L1D-total_miss : 1518233
L1D-load_access : 7163348
L1D-load_hit : 6484383
L1D-load_miss : 678965
L1D-rfo_access : 6162122
L1D-rfo_hit : 5888216
L1D-rfo_miss : 273906
L1D-prefetch_access : 6841313
L1D-prefetch_hit : 6275951
L1D-prefetch_miss : 565362
L1D-writeback_access : 0
L1D-writeback_hit : 0
L1D-writeback_miss : 0
L1D-prefetch_requested : 7217026
L1D-prefetch_issued : 7101209
L1D-prefetch_useful : 137713
L1D-prefetch_useless : 427653
L1D-Avg_miss_latency : 25.2049
L1D-Morteza_fill_l2_prefetches : 0

L1I TOTAL     ACCESS:   18554960  HIT:   15030846  MISS:    3524114
L1I LOAD      ACCESS:    9139977  HIT:    8369876  MISS:     770101
L1I RFO       ACCESS:          0  HIT:          0  MISS:          0
L1I PREFETCH  ACCESS:    9414983  HIT:    6660970  MISS:    2754013
L1I WRITEBACK ACCESS:          0  HIT:          0  MISS:          0
L1I PREFETCH  REQUESTED:   10730631  ISSUED:   10712936  USEFUL:    1887038  USELESS:     866978
L1I AVERAGE MISS LATENCY: 16.3576 cycles
L1I

SHEET
L1I-total_access : 18554960
L1I-total_hit : 15030846
L1I-total_miss : 3524114
L1I-load_access : 9139977
L1I-load_hit : 8369876
L1I-load_miss : 770101
L1I-rfo_access : 0
L1I-rfo_hit : 0
L1I-rfo_miss : 0
L1I-prefetch_access : 9414983
L1I-prefetch_hit : 6660970
L1I-prefetch_miss : 2754013
L1I-writeback_access : 0
L1I-writeback_hit : 0
L1I-writeback_miss : 0
L1I-prefetch_requested : 10730631
L1I-prefetch_issued : 10712936
L1I-prefetch_useful : 1887038
L1I-prefetch_useless : 866978
L1I-Avg_miss_latency : 16.3576
L1I-Morteza_fill_l2_prefetches : 0

L2C TOTAL     ACCESS:    6869228  HIT:    6122004  MISS:     747224
L2C LOAD      ACCESS:    1039997  HIT:     870311  MISS:     169686
L2C RFO       ACCESS:     272067  HIT:     186753  MISS:      85314
L2C PREFETCH  ACCESS:    5036977  HIT:    4550284  MISS:     486693
L2C WRITEBACK ACCESS:     520187  HIT:     514656  MISS:       5531
L2C PREFETCH  REQUESTED:    5693162  ISSUED:    5686678  USEFUL:      31207  USELESS:     454451
L2C AVERAGE MISS LATENCY: 43.3798 cycles
L2C

SHEET
L2C-total_access : 6869228
L2C-total_hit : 6122004
L2C-total_miss : 747224
L2C-load_access : 1039997
L2C-load_hit : 870311
L2C-load_miss : 169686
L2C-rfo_access : 272067
L2C-rfo_hit : 186753
L2C-rfo_miss : 85314
L2C-prefetch_access : 5036977
L2C-prefetch_hit : 4550284
L2C-prefetch_miss : 486693
L2C-writeback_access : 520187
L2C-writeback_hit : 514656
L2C-writeback_miss : 5531
L2C-prefetch_requested : 5693162
L2C-prefetch_issued : 5686678
L2C-prefetch_useful : 31207
L2C-prefetch_useless : 454451
L2C-Avg_miss_latency : 43.3798
L2C-Morteza_fill_l2_prefetches : 1346603

LLC TOTAL     ACCESS:    2412509  HIT:    2359273  MISS:      53236
LLC LOAD      ACCESS:     169501  HIT:     163693  MISS:       5808
LLC RFO       ACCESS:      85310  HIT:      63291  MISS:      22019
LLC PREFETCH  ACCESS:    2017126  HIT:    1991977  MISS:      25149
LLC WRITEBACK ACCESS:     140572  HIT:     140312  MISS:        260
LLC PREFETCH  REQUESTED:          0  ISSUED:          0  USEFUL:       2313  USELESS:      22182
LLC AVERAGE MISS LATENCY: 198.795 cycles
LLC

SHEET
LLC-total_access : 2412509
LLC-total_hit : 2359273
LLC-total_miss : 53236
LLC-load_access : 169501
LLC-load_hit : 163693
LLC-load_miss : 5808
LLC-rfo_access : 85310
LLC-rfo_hit : 63291
LLC-rfo_miss : 22019
LLC-prefetch_access : 2017126
LLC-prefetch_hit : 1991977
LLC-prefetch_miss : 25149
LLC-writeback_access : 140572
LLC-writeback_hit : 140312
LLC-writeback_miss : 260
LLC-prefetch_requested : 0
LLC-prefetch_issued : 0
LLC-prefetch_useful : 2313
LLC-prefetch_useless : 22182
LLC-Avg_miss_latency : 198.795
LLC-Morteza_fill_l2_prefetches : 1534319

Major fault: 0 Minor fault: 2426



Printing Logs
statHeadFound: 1814836
statHeadMissing: 2458975
statStreamBufferHit: 9819082
statPrefetchEntryFound: 7849583
statCompactorMatch: 11093096
statStreamTrackerLookup: 14092893
statRecord: 2999797
statGetPointer: 4273811
statEnqueuePrefetch: 21398597
statPrefetchQueueIsFull: 521
StreamBufferHitRate: 0.69674
Regions' size: 2527
next_region_correct: 1983465
next_region_wrong: 1013797
next_region_correct_prediction: 0.661759
statStreamBufferLookups: 140928930
statL1iLookups: 171188776
statCompactorLookups: 225486288
morteza: start

SHEET
mana_table_access_counter : 6430479
mana_table_multiple_access_counter : 6238066
hobp_table_access_counter : 54046140
sab_access_counter : 17668665
srq_access_counter : 15997776

morteza: end
CPU 0 L1D next line prefetcher final stats

DRAM Statistics
 CHANNEL 0
 RQ ROW_BUFFER_HIT:      17731  ROW_BUFFER_MISS:      35230
 DBUS_CONGESTED:      38884
 WQ ROW_BUFFER_HIT:       2737  ROW_BUFFER_MISS:      23403  FULL:          0

 AVG_CONGESTED_CYCLE: 6

CPU 0 Branch Prediction Accuracy: 99.7477% MPKI: 0.46156 Average ROB Occupancy at Mispredict: 140.322

Branch types
NOT_BRANCH: 40853564 81.7071%
BRANCH_DIRECT_JUMP: 566812 1.13362%
BRANCH_INDIRECT: 197171 0.394342%
BRANCH_CONDITIONAL: 6308397 12.6168%
BRANCH_DIRECT_CALL: 876399 1.7528%
BRANCH_INDIRECT_CALL: 160491 0.320982%
BRANCH_RETURN: 1036885 2.07377%
BRANCH_OTHER: 0 0%

