Initialize SIGNATURE TABLE
ST_SET: 1
ST_WAY: 256
ST_TAG_BIT: 16
ST_TAG_MASK: ffff

Initialize PATTERN TABLE
PT_SET: 512
PT_WAY: 4
SIG_DELTA_BIT: 7
C_SIG_BIT: 4
C_DELTA_BIT: 4

Initialize PREFETCH FILTER
FILTER_SET: 1024
MANA initialize 
tds: 2 tdm: 4
size MANA SINGLE: 74 KB
size MANA NULTIPLE: 43 KB
size HOBPT: 5 KB
size SRQ: 0.0644531 KB
size SABs: 0.0402832 KB
size prefetch queue: 0.453125 KB
total: 122.558 KB

*** ChampSim Multicore Out-of-Order Simulator ***

Warmup Instructions: 50000000
Simulation Instructions: 50000000
Number of CPUs: 1
LLC sets: 2048
LLC ways: 16
Off-chip DRAM Size: 4096 MB Channels: 1 Width: 64-bit Data Rate: 3200 MT/s

CPU 0 runs /home/mbaradaran/ChampSim/dpc3_traces/server_004.champsimtrace.xz
CPU 0 L1D next line prefetcher
Heartbeat CPU 0 instructions: 10000002 cycles: 3228074 heartbeat IPC: 3.09782 cumulative IPC: 3.09782 (Simulation time: 0 hr 1 min 21 sec) 
Heartbeat CPU 0 instructions: 20000002 cycles: 6562307 heartbeat IPC: 2.99919 cumulative IPC: 3.04771 (Simulation time: 0 hr 2 min 51 sec) 
Heartbeat CPU 0 instructions: 30000000 cycles: 11679391 heartbeat IPC: 1.95424 cumulative IPC: 2.56863 (Simulation time: 0 hr 4 min 39 sec) 
Heartbeat CPU 0 instructions: 40000003 cycles: 15426642 heartbeat IPC: 2.66862 cumulative IPC: 2.59292 (Simulation time: 0 hr 6 min 3 sec) 
Heartbeat CPU 0 instructions: 50000003 cycles: 18653832 heartbeat IPC: 3.09867 cumulative IPC: 2.68041 (Simulation time: 0 hr 7 min 24 sec) 

Warmup complete CPU 0 instructions: 50000003 cycles: 18653832 (Simulation time: 0 hr 7 min 24 sec) 

Heartbeat CPU 0 instructions: 60000002 cycles: 27494509 heartbeat IPC: 1.13113 cumulative IPC: 1.13113 (Simulation time: 0 hr 8 min 45 sec) 
Heartbeat CPU 0 instructions: 70000000 cycles: 35823381 heartbeat IPC: 1.20064 cumulative IPC: 1.16485 (Simulation time: 0 hr 10 min 2 sec) 
Heartbeat CPU 0 instructions: 80000001 cycles: 56819907 heartbeat IPC: 0.476269 cumulative IPC: 0.786038 (Simulation time: 0 hr 12 min 17 sec) 
Heartbeat CPU 0 instructions: 90000003 cycles: 71853886 heartbeat IPC: 0.66516 cumulative IPC: 0.751879 (Simulation time: 0 hr 13 min 52 sec) 
Heartbeat CPU 0 instructions: 100000003 cycles: 80773213 heartbeat IPC: 1.12116 cumulative IPC: 0.804902 (Simulation time: 0 hr 15 min 2 sec) 
Finished CPU 0 instructions: 50000000 cycles: 62119381 cumulative IPC: 0.804902 (Simulation time: 0 hr 15 min 2 sec) 

ChampSim completed all CPUs

Region of Interest Statistics

CPU 0 cumulative IPC: 0.804902 instructions: 50000000 cycles: 62119381

SHEET
IPC : 0.804902

L1D TOTAL     ACCESS:   21738063  HIT:   17666783  MISS:    4071280
L1D LOAD      ACCESS:    8649139  HIT:    6631115  MISS:    2018024
L1D RFO       ACCESS:    4647367  HIT:    4540427  MISS:     106940
L1D PREFETCH  ACCESS:    8441557  HIT:    6495241  MISS:    1946316
L1D WRITEBACK ACCESS:          0  HIT:          0  MISS:          0
L1D PREFETCH  REQUESTED:    8685392  ISSUED:    8596705  USEFUL:     106616  USELESS:    1839695
L1D AVERAGE MISS LATENCY: 22.9282 cycles
L1D

SHEET
L1D-total_access : 21738063
L1D-total_hit : 17666783
L1D-total_miss : 4071280
L1D-load_access : 8649139
L1D-load_hit : 6631115
L1D-load_miss : 2018024
L1D-rfo_access : 4647367
L1D-rfo_hit : 4540427
L1D-rfo_miss : 106940
L1D-prefetch_access : 8441557
L1D-prefetch_hit : 6495241
L1D-prefetch_miss : 1946316
L1D-writeback_access : 0
L1D-writeback_hit : 0
L1D-writeback_miss : 0
L1D-prefetch_requested : 8685392
L1D-prefetch_issued : 8596705
L1D-prefetch_useful : 106616
L1D-prefetch_useless : 1839695
L1D-Avg_miss_latency : 22.9282
L1D-Morteza_fill_l2_prefetches : 0

L1I TOTAL     ACCESS:   22876378  HIT:   21229148  MISS:    1647230
L1I LOAD      ACCESS:   10686433  HIT:   10345026  MISS:     341407
L1I RFO       ACCESS:          0  HIT:          0  MISS:          0
L1I PREFETCH  ACCESS:   12189945  HIT:   10884122  MISS:    1305823
L1I WRITEBACK ACCESS:          0  HIT:          0  MISS:          0
L1I PREFETCH  REQUESTED:   13653345  ISSUED:   13572062  USEFUL:     879953  USELESS:     425843
L1I AVERAGE MISS LATENCY: 31.1869 cycles
L1I

SHEET
L1I-total_access : 22876378
L1I-total_hit : 21229148
L1I-total_miss : 1647230
L1I-load_access : 10686433
L1I-load_hit : 10345026
L1I-load_miss : 341407
L1I-rfo_access : 0
L1I-rfo_hit : 0
L1I-rfo_miss : 0
L1I-prefetch_access : 12189945
L1I-prefetch_hit : 10884122
L1I-prefetch_miss : 1305823
L1I-writeback_access : 0
L1I-writeback_hit : 0
L1I-writeback_miss : 0
L1I-prefetch_requested : 13653345
L1I-prefetch_issued : 13572062
L1I-prefetch_useful : 879953
L1I-prefetch_useless : 425843
L1I-Avg_miss_latency : 31.1869
L1I-Morteza_fill_l2_prefetches : 0

L2C TOTAL     ACCESS:    7321108  HIT:    6257028  MISS:    1064080
L2C LOAD      ACCESS:    2189276  HIT:    1911265  MISS:     278011
L2C RFO       ACCESS:     105691  HIT:      57376  MISS:      48315
L2C PREFETCH  ACCESS:    4781084  HIT:    4044965  MISS:     736119
L2C WRITEBACK ACCESS:     245057  HIT:     243422  MISS:       1635
L2C PREFETCH  REQUESTED:    6485819  ISSUED:    6484142  USEFUL:      43710  USELESS:     691666
L2C AVERAGE MISS LATENCY: 59.4209 cycles
L2C

SHEET
L2C-total_access : 7321108
L2C-total_hit : 6257028
L2C-total_miss : 1064080
L2C-load_access : 2189276
L2C-load_hit : 1911265
L2C-load_miss : 278011
L2C-rfo_access : 105691
L2C-rfo_hit : 57376
L2C-rfo_miss : 48315
L2C-prefetch_access : 4781084
L2C-prefetch_hit : 4044965
L2C-prefetch_miss : 736119
L2C-writeback_access : 245057
L2C-writeback_hit : 243422
L2C-writeback_miss : 1635
L2C-prefetch_requested : 6485819
L2C-prefetch_issued : 6484142
L2C-prefetch_useful : 43710
L2C-prefetch_useless : 691666
L2C-Avg_miss_latency : 59.4209
L2C-Morteza_fill_l2_prefetches : 1361505

LLC TOTAL     ACCESS:    2394333  HIT:    2159807  MISS:     234526
LLC LOAD      ACCESS:     277532  HIT:     233965  MISS:      43567
LLC RFO       ACCESS:      48311  HIT:      33673  MISS:      14638
LLC PREFETCH  ACCESS:    1927658  HIT:    1751657  MISS:     176001
LLC WRITEBACK ACCESS:     140832  HIT:     140512  MISS:        320
LLC PREFETCH  REQUESTED:          0  ISSUED:          0  USEFUL:      18633  USELESS:     156357
LLC AVERAGE MISS LATENCY: 176.768 cycles
LLC

SHEET
LLC-total_access : 2394333
LLC-total_hit : 2159807
LLC-total_miss : 234526
LLC-load_access : 277532
LLC-load_hit : 233965
LLC-load_miss : 43567
LLC-rfo_access : 48311
LLC-rfo_hit : 33673
LLC-rfo_miss : 14638
LLC-prefetch_access : 1927658
LLC-prefetch_hit : 1751657
LLC-prefetch_miss : 176001
LLC-writeback_access : 140832
LLC-writeback_hit : 140512
LLC-writeback_miss : 320
LLC-prefetch_requested : 0
LLC-prefetch_issued : 0
LLC-prefetch_useful : 18633
LLC-prefetch_useless : 156357
LLC-Avg_miss_latency : 176.768
LLC-Morteza_fill_l2_prefetches : 1144213

Major fault: 0 Minor fault: 7656



Printing Logs
statHeadFound: 2507050
statHeadMissing: 1253369
statStreamBufferHit: 11580942
statPrefetchEntryFound: 9344084
statCompactorMatch: 12913709
statStreamTrackerLookup: 15341361
statRecord: 2427652
statGetPointer: 3760419
statEnqueuePrefetch: 26550095
statPrefetchQueueIsFull: 1016
StreamBufferHitRate: 0.754884
Regions' size: 9547
next_region_correct: 1811850
next_region_wrong: 606247
next_region_correct_prediction: 0.749288
statStreamBufferLookups: 153413610
statL1iLookups: 212400760
statCompactorLookups: 245461776
morteza: start

SHEET
mana_table_access_counter : 5731736
mana_table_multiple_access_counter : 8570189
hobp_table_access_counter : 49175943
sab_access_counter : 20925026
srq_access_counter : 14689849

morteza: end
CPU 0 L1D next line prefetcher final stats

DRAM Statistics
 CHANNEL 0
 RQ ROW_BUFFER_HIT:      48757  ROW_BUFFER_MISS:     185431
 DBUS_CONGESTED:     102323
 WQ ROW_BUFFER_HIT:      10894  ROW_BUFFER_MISS:      43414  FULL:          0

 AVG_CONGESTED_CYCLE: 5

CPU 0 Branch Prediction Accuracy: 98.1603% MPKI: 3.89124 Average ROB Occupancy at Mispredict: 61.8744

Branch types
NOT_BRANCH: 39423755 78.8475%
BRANCH_DIRECT_JUMP: 551642 1.10328%
BRANCH_INDIRECT: 139368 0.278736%
BRANCH_CONDITIONAL: 7920858 15.8417%
BRANCH_DIRECT_CALL: 776072 1.55214%
BRANCH_INDIRECT_CALL: 194644 0.389288%
BRANCH_RETURN: 993311 1.98662%
BRANCH_OTHER: 0 0%

