Initialize SIGNATURE TABLE
ST_SET: 1
ST_WAY: 256
ST_TAG_BIT: 16
ST_TAG_MASK: ffff

Initialize PATTERN TABLE
PT_SET: 512
PT_WAY: 4
SIG_DELTA_BIT: 7
C_SIG_BIT: 4
C_DELTA_BIT: 4

Initialize PREFETCH FILTER
FILTER_SET: 1024
MANA initialize 
tds: 2 tdm: 4
size MANA SINGLE: 74 KB
size MANA NULTIPLE: 43 KB
size HOBPT: 5 KB
size SRQ: 0.0644531 KB
size SABs: 0.0402832 KB
size prefetch queue: 0.453125 KB
total: 122.558 KB

*** ChampSim Multicore Out-of-Order Simulator ***

Warmup Instructions: 50000000
Simulation Instructions: 50000000
Number of CPUs: 1
LLC sets: 2048
LLC ways: 16
Off-chip DRAM Size: 4096 MB Channels: 1 Width: 64-bit Data Rate: 3200 MT/s

CPU 0 runs /home/mbaradaran/ChampSim/dpc3_traces/spec_gcc_002.champsimtrace.xz
CPU 0 L1D next line prefetcher
Heartbeat CPU 0 instructions: 10000002 cycles: 3570715 heartbeat IPC: 2.80056 cumulative IPC: 2.80056 (Simulation time: 0 hr 1 min 17 sec) 
Heartbeat CPU 0 instructions: 20000000 cycles: 7145675 heartbeat IPC: 2.79723 cumulative IPC: 2.7989 (Simulation time: 0 hr 2 min 31 sec) 
Heartbeat CPU 0 instructions: 30000000 cycles: 10770945 heartbeat IPC: 2.75842 cumulative IPC: 2.78527 (Simulation time: 0 hr 3 min 51 sec) 
Heartbeat CPU 0 instructions: 40000000 cycles: 14319500 heartbeat IPC: 2.81805 cumulative IPC: 2.79339 (Simulation time: 0 hr 5 min 3 sec) 
Heartbeat CPU 0 instructions: 50000002 cycles: 17813572 heartbeat IPC: 2.86199 cumulative IPC: 2.80685 (Simulation time: 0 hr 6 min 8 sec) 

Warmup complete CPU 0 instructions: 50000002 cycles: 17813572 (Simulation time: 0 hr 6 min 8 sec) 

Heartbeat CPU 0 instructions: 60000001 cycles: 54925793 heartbeat IPC: 0.269453 cumulative IPC: 0.269453 (Simulation time: 0 hr 8 min 27 sec) 
Heartbeat CPU 0 instructions: 70000001 cycles: 86752393 heartbeat IPC: 0.314203 cumulative IPC: 0.290112 (Simulation time: 0 hr 10 min 37 sec) 
Heartbeat CPU 0 instructions: 80000002 cycles: 135138468 heartbeat IPC: 0.206671 cumulative IPC: 0.2557 (Simulation time: 0 hr 13 min 24 sec) 
Heartbeat CPU 0 instructions: 90000001 cycles: 179001460 heartbeat IPC: 0.227983 cumulative IPC: 0.248158 (Simulation time: 0 hr 16 min 0 sec) 
Heartbeat CPU 0 instructions: 100000000 cycles: 208021057 heartbeat IPC: 0.344595 cumulative IPC: 0.262871 (Simulation time: 0 hr 18 min 1 sec) 
Finished CPU 0 instructions: 50000002 cycles: 190207493 cumulative IPC: 0.262871 (Simulation time: 0 hr 18 min 1 sec) 

ChampSim completed all CPUs

Region of Interest Statistics

CPU 0 cumulative IPC: 0.262871 instructions: 50000002 cycles: 190207493

SHEET
IPC : 0.262871

L1D TOTAL     ACCESS:   18404833  HIT:   13171037  MISS:    5233796
L1D LOAD      ACCESS:    6421772  HIT:    5376801  MISS:    1044971
L1D RFO       ACCESS:    7055761  HIT:    3455075  MISS:    3600686
L1D PREFETCH  ACCESS:    4927300  HIT:    4339161  MISS:     588139
L1D WRITEBACK ACCESS:          0  HIT:          0  MISS:          0
L1D PREFETCH  REQUESTED:    6442095  ISSUED:    6373448  USEFUL:     428277  USELESS:     160078
L1D AVERAGE MISS LATENCY: 327.692 cycles
L1D

SHEET
L1D-total_access : 18404833
L1D-total_hit : 13171037
L1D-total_miss : 5233796
L1D-load_access : 6421772
L1D-load_hit : 5376801
L1D-load_miss : 1044971
L1D-rfo_access : 7055761
L1D-rfo_hit : 3455075
L1D-rfo_miss : 3600686
L1D-prefetch_access : 4927300
L1D-prefetch_hit : 4339161
L1D-prefetch_miss : 588139
L1D-writeback_access : 0
L1D-writeback_hit : 0
L1D-writeback_miss : 0
L1D-prefetch_requested : 6442095
L1D-prefetch_issued : 6373448
L1D-prefetch_useful : 428277
L1D-prefetch_useless : 160078
L1D-Avg_miss_latency : 327.692
L1D-Morteza_fill_l2_prefetches : 0

L1I TOTAL     ACCESS:   19861593  HIT:   18776732  MISS:    1084861
L1I LOAD      ACCESS:   12071583  HIT:   11810167  MISS:     261416
L1I RFO       ACCESS:          0  HIT:          0  MISS:          0
L1I PREFETCH  ACCESS:    7790010  HIT:    6966565  MISS:     823445
L1I WRITEBACK ACCESS:          0  HIT:          0  MISS:          0
L1I PREFETCH  REQUESTED:    9610209  ISSUED:    9446364  USEFUL:     498817  USELESS:     324594
L1I AVERAGE MISS LATENCY: 49.2491 cycles
L1I

SHEET
L1I-total_access : 19861593
L1I-total_hit : 18776732
L1I-total_miss : 1084861
L1I-load_access : 12071583
L1I-load_hit : 11810167
L1I-load_miss : 261416
L1I-rfo_access : 0
L1I-rfo_hit : 0
L1I-rfo_miss : 0
L1I-prefetch_access : 7790010
L1I-prefetch_hit : 6966565
L1I-prefetch_miss : 823445
L1I-writeback_access : 0
L1I-writeback_hit : 0
L1I-writeback_miss : 0
L1I-prefetch_requested : 9610209
L1I-prefetch_issued : 9446364
L1I-prefetch_useful : 498817
L1I-prefetch_useless : 324594
L1I-Avg_miss_latency : 49.2491
L1I-Morteza_fill_l2_prefetches : 0

L2C TOTAL     ACCESS:   10512682  HIT:    5211115  MISS:    5301567
L2C LOAD      ACCESS:     430084  HIT:     222520  MISS:     207564
L2C RFO       ACCESS:    3599112  HIT:      12126  MISS:    3586986
L2C PREFETCH  ACCESS:    2757964  HIT:    1251175  MISS:    1506789
L2C WRITEBACK ACCESS:    3725522  HIT:    3725294  MISS:        228
L2C PREFETCH  REQUESTED:    3365625  ISSUED:    3365304  USEFUL:      53155  USELESS:    1453798
L2C AVERAGE MISS LATENCY: 335.563 cycles
L2C

SHEET
L2C-total_access : 10512682
L2C-total_hit : 5211115
L2C-total_miss : 5301567
L2C-load_access : 430084
L2C-load_hit : 222520
L2C-load_miss : 207564
L2C-rfo_access : 3599112
L2C-rfo_hit : 12126
L2C-rfo_miss : 3586986
L2C-prefetch_access : 2757964
L2C-prefetch_hit : 1251175
L2C-prefetch_miss : 1506789
L2C-writeback_access : 3725522
L2C-writeback_hit : 3725294
L2C-writeback_miss : 228
L2C-prefetch_requested : 3365625
L2C-prefetch_issued : 3365304
L2C-prefetch_useful : 53155
L2C-prefetch_useless : 1453798
L2C-Avg_miss_latency : 335.563
L2C-Morteza_fill_l2_prefetches : 366089

LLC TOTAL     ACCESS:   10072666  HIT:    6397770  MISS:    3674896
LLC LOAD      ACCESS:     207383  HIT:     130555  MISS:      76828
LLC RFO       ACCESS:    3586986  HIT:     690694  MISS:    2896292
LLC PREFETCH  ACCESS:    2610251  HIT:    1908475  MISS:     701776
LLC WRITEBACK ACCESS:    3668046  HIT:    3668046  MISS:          0
LLC PREFETCH  REQUESTED:          0  ISSUED:          0  USEFUL:     156655  USELESS:     541404
LLC AVERAGE MISS LATENCY: 462.166 cycles
LLC

SHEET
LLC-total_access : 10072666
LLC-total_hit : 6397770
LLC-total_miss : 3674896
LLC-load_access : 207383
LLC-load_hit : 130555
LLC-load_miss : 76828
LLC-rfo_access : 3586987
LLC-rfo_hit : 690694
LLC-rfo_miss : 2896293
LLC-prefetch_access : 2610251
LLC-prefetch_hit : 1908475
LLC-prefetch_miss : 701776
LLC-writeback_access : 3668046
LLC-writeback_hit : 3668046
LLC-writeback_miss : 0
LLC-prefetch_requested : 0
LLC-prefetch_issued : 0
LLC-prefetch_useful : 156655
LLC-prefetch_useless : 541404
LLC-Avg_miss_latency : 462.166
LLC-Morteza_fill_l2_prefetches : 1095247

Major fault: 0 Minor fault: 4244



Printing Logs
statHeadFound: 1717259
statHeadMissing: 5010533
statStreamBufferHit: 6366231
statPrefetchEntryFound: 6152151
statCompactorMatch: 11824523
statStreamTrackerLookup: 13094023
statRecord: 1269500
statGetPointer: 6727792
statEnqueuePrefetch: 17733779
statPrefetchQueueIsFull: 44323
StreamBufferHitRate: 0.486194
Regions' size: 1619
next_region_correct: 744680
next_region_wrong: 523193
next_region_correct_prediction: 0.587346
statStreamBufferLookups: 130940230
statL1iLookups: 141870232
statCompactorLookups: 209504368
morteza: start

SHEET
mana_table_access_counter : 2368371
mana_table_multiple_access_counter : 6817650
hobp_table_access_counter : 65101445
sab_access_counter : 12518382
srq_access_counter : 12659784

morteza: end
CPU 0 L1D next line prefetcher final stats

DRAM Statistics
 CHANNEL 0
 RQ ROW_BUFFER_HIT:     995193  ROW_BUFFER_MISS:    2677310
 DBUS_CONGESTED:    5339883
 WQ ROW_BUFFER_HIT:     910433  ROW_BUFFER_MISS:    2163839  FULL:          0

 AVG_CONGESTED_CYCLE: 6

CPU 0 Branch Prediction Accuracy: 99.5987% MPKI: 0.82446 Average ROB Occupancy at Mispredict: 116.216

Branch types
NOT_BRANCH: 39726805 79.4536%
BRANCH_DIRECT_JUMP: 391438 0.782876%
BRANCH_INDIRECT: 62076 0.124152%
BRANCH_CONDITIONAL: 8421541 16.8431%
BRANCH_DIRECT_CALL: 672962 1.34592%
BRANCH_INDIRECT_CALL: 26115 0.05223%
BRANCH_RETURN: 699082 1.39816%
BRANCH_OTHER: 0 0%

