Initialize SIGNATURE TABLE
ST_SET: 1
ST_WAY: 256
ST_TAG_BIT: 16
ST_TAG_MASK: ffff

Initialize PATTERN TABLE
PT_SET: 512
PT_WAY: 4
SIG_DELTA_BIT: 7
C_SIG_BIT: 4
C_DELTA_BIT: 4

Initialize PREFETCH FILTER
FILTER_SET: 1024
MANA initialize 
tds: 2 tdm: 4
size MANA SINGLE: 74 KB
size MANA NULTIPLE: 43 KB
size HOBPT: 5 KB
size SRQ: 0.0644531 KB
size SABs: 0.0402832 KB
size prefetch queue: 0.453125 KB
total: 122.558 KB

*** ChampSim Multicore Out-of-Order Simulator ***

Warmup Instructions: 50000000
Simulation Instructions: 50000000
Number of CPUs: 1
LLC sets: 2048
LLC ways: 16
Off-chip DRAM Size: 4096 MB Channels: 1 Width: 64-bit Data Rate: 3200 MT/s

CPU 0 runs /home/mbaradaran/ChampSim/dpc3_traces/spec_gcc_003.champsimtrace.xz
CPU 0 L1D next line prefetcher
Heartbeat CPU 0 instructions: 10000001 cycles: 3483853 heartbeat IPC: 2.87039 cumulative IPC: 2.87039 (Simulation time: 0 hr 1 min 7 sec) 
Heartbeat CPU 0 instructions: 20000000 cycles: 6951910 heartbeat IPC: 2.88346 cumulative IPC: 2.87691 (Simulation time: 0 hr 2 min 18 sec) 
Heartbeat CPU 0 instructions: 30000002 cycles: 10398763 heartbeat IPC: 2.9012 cumulative IPC: 2.88496 (Simulation time: 0 hr 3 min 23 sec) 
Heartbeat CPU 0 instructions: 40000000 cycles: 13866154 heartbeat IPC: 2.88401 cumulative IPC: 2.88472 (Simulation time: 0 hr 4 min 33 sec) 
Heartbeat CPU 0 instructions: 50000001 cycles: 17175691 heartbeat IPC: 3.02157 cumulative IPC: 2.91109 (Simulation time: 0 hr 5 min 36 sec) 

Warmup complete CPU 0 instructions: 50000001 cycles: 17175691 (Simulation time: 0 hr 5 min 36 sec) 

Heartbeat CPU 0 instructions: 60000000 cycles: 57171244 heartbeat IPC: 0.250028 cumulative IPC: 0.250028 (Simulation time: 0 hr 8 min 4 sec) 
Heartbeat CPU 0 instructions: 70000000 cycles: 99681004 heartbeat IPC: 0.23524 cumulative IPC: 0.242409 (Simulation time: 0 hr 10 min 36 sec) 
Heartbeat CPU 0 instructions: 80000002 cycles: 143028547 heartbeat IPC: 0.230694 cumulative IPC: 0.238374 (Simulation time: 0 hr 13 min 6 sec) 
Heartbeat CPU 0 instructions: 90000002 cycles: 179585834 heartbeat IPC: 0.273543 cumulative IPC: 0.24629 (Simulation time: 0 hr 15 min 19 sec) 
Heartbeat CPU 0 instructions: 100000000 cycles: 225323199 heartbeat IPC: 0.21864 cumulative IPC: 0.240214 (Simulation time: 0 hr 17 min 54 sec) 
Finished CPU 0 instructions: 50000000 cycles: 208147509 cumulative IPC: 0.240214 (Simulation time: 0 hr 17 min 54 sec) 

ChampSim completed all CPUs

Region of Interest Statistics

CPU 0 cumulative IPC: 0.240214 instructions: 50000000 cycles: 208147509

SHEET
IPC : 0.240214

L1D TOTAL     ACCESS:   17054797  HIT:   11330369  MISS:    5724428
L1D LOAD      ACCESS:    4657445  HIT:    4274749  MISS:     382696
L1D RFO       ACCESS:    8226157  HIT:    3174621  MISS:    5051536
L1D PREFETCH  ACCESS:    4171195  HIT:    3880999  MISS:     290196
L1D WRITEBACK ACCESS:          0  HIT:          0  MISS:          0
L1D PREFETCH  REQUESTED:    4675689  ISSUED:    4617832  USEFUL:     152614  USELESS:     137762
L1D AVERAGE MISS LATENCY: 492.704 cycles
L1D

SHEET
L1D-total_access : 17054797
L1D-total_hit : 11330369
L1D-total_miss : 5724428
L1D-load_access : 4657445
L1D-load_hit : 4274749
L1D-load_miss : 382696
L1D-rfo_access : 8226157
L1D-rfo_hit : 3174621
L1D-rfo_miss : 5051536
L1D-prefetch_access : 4171195
L1D-prefetch_hit : 3880999
L1D-prefetch_miss : 290196
L1D-writeback_access : 0
L1D-writeback_hit : 0
L1D-writeback_miss : 0
L1D-prefetch_requested : 4675689
L1D-prefetch_issued : 4617832
L1D-prefetch_useful : 152614
L1D-prefetch_useless : 137762
L1D-Avg_miss_latency : 492.704
L1D-Morteza_fill_l2_prefetches : 0

L1I TOTAL     ACCESS:   18667684  HIT:   17419870  MISS:    1247814
L1I LOAD      ACCESS:   11267563  HIT:   10951646  MISS:     315917
L1I RFO       ACCESS:          0  HIT:          0  MISS:          0
L1I PREFETCH  ACCESS:    7400121  HIT:    6468224  MISS:     931897
L1I WRITEBACK ACCESS:          0  HIT:          0  MISS:          0
L1I PREFETCH  REQUESTED:    9386951  ISSUED:    9169137  USEFUL:     562198  USELESS:     369685
L1I AVERAGE MISS LATENCY: 46.6031 cycles
L1I

SHEET
L1I-total_access : 18667684
L1I-total_hit : 17419870
L1I-total_miss : 1247814
L1I-load_access : 11267563
L1I-load_hit : 10951646
L1I-load_miss : 315917
L1I-rfo_access : 0
L1I-rfo_hit : 0
L1I-rfo_miss : 0
L1I-prefetch_access : 7400121
L1I-prefetch_hit : 6468224
L1I-prefetch_miss : 931897
L1I-writeback_access : 0
L1I-writeback_hit : 0
L1I-writeback_miss : 0
L1I-prefetch_requested : 9386951
L1I-prefetch_issued : 9169137
L1I-prefetch_useful : 562198
L1I-prefetch_useless : 369685
L1I-Avg_miss_latency : 46.6031
L1I-Morteza_fill_l2_prefetches : 0

L2C TOTAL     ACCESS:   12513264  HIT:    6467921  MISS:    6045343
L2C LOAD      ACCESS:     422251  HIT:     181698  MISS:     240553
L2C RFO       ACCESS:    5049886  HIT:       6638  MISS:    5043248
L2C PREFETCH  ACCESS:    1883210  HIT:    1121814  MISS:     761396
L2C WRITEBACK ACCESS:    5157917  HIT:    5157771  MISS:        146
L2C PREFETCH  REQUESTED:    2186814  ISSUED:    2186594  USEFUL:      63308  USELESS:     695095
L2C AVERAGE MISS LATENCY: 462.81 cycles
L2C

SHEET
L2C-total_access : 12513264
L2C-total_hit : 6467921
L2C-total_miss : 6045343
L2C-load_access : 422251
L2C-load_hit : 181698
L2C-load_miss : 240553
L2C-rfo_access : 5049886
L2C-rfo_hit : 6638
L2C-rfo_miss : 5043248
L2C-prefetch_access : 1883210
L2C-prefetch_hit : 1121814
L2C-prefetch_miss : 761396
L2C-writeback_access : 5157917
L2C-writeback_hit : 5157771
L2C-writeback_miss : 146
L2C-prefetch_requested : 2186814
L2C-prefetch_issued : 2186594
L2C-prefetch_useful : 63308
L2C-prefetch_useless : 695095
L2C-Avg_miss_latency : 462.81
L2C-Morteza_fill_l2_prefetches : 342122

LLC TOTAL     ACCESS:   12001517  HIT:    7392614  MISS:    4608903
LLC LOAD      ACCESS:     240514  HIT:     182061  MISS:      58453
LLC RFO       ACCESS:    5043247  HIT:     726434  MISS:    4316813
LLC PREFETCH  ACCESS:    1584345  HIT:    1350708  MISS:     233637
LLC WRITEBACK ACCESS:    5133411  HIT:    5133411  MISS:          0
LLC PREFETCH  REQUESTED:          0  ISSUED:          0  USEFUL:      20020  USELESS:     213318
LLC AVERAGE MISS LATENCY: 574.224 cycles
LLC

SHEET
LLC-total_access : 12001517
LLC-total_hit : 7392614
LLC-total_miss : 4608903
LLC-load_access : 240514
LLC-load_hit : 182061
LLC-load_miss : 58453
LLC-rfo_access : 5043247
LLC-rfo_hit : 726434
LLC-rfo_miss : 4316813
LLC-prefetch_access : 1584345
LLC-prefetch_hit : 1350708
LLC-prefetch_miss : 233637
LLC-writeback_access : 5133411
LLC-writeback_hit : 5133411
LLC-writeback_miss : 0
LLC-prefetch_requested : 0
LLC-prefetch_issued : 0
LLC-prefetch_useful : 20020
LLC-prefetch_useless : 213318
LLC-Avg_miss_latency : 574.224
LLC-Morteza_fill_l2_prefetches : 823276

Major fault: 0 Minor fault: 2919



Printing Logs
statHeadFound: 1547374
statHeadMissing: 2563205
statStreamBufferHit: 5851966
statPrefetchEntryFound: 5690953
statCompactorMatch: 8671868
statStreamTrackerLookup: 9962545
statRecord: 1290677
statGetPointer: 4110579
statEnqueuePrefetch: 16471230
statPrefetchQueueIsFull: 35095
StreamBufferHitRate: 0.587397
Regions' size: 1634
next_region_correct: 743823
next_region_wrong: 545212
next_region_correct_prediction: 0.577039
statStreamBufferLookups: 99625450
statL1iLookups: 131769840
statCompactorLookups: 159400720
morteza: start

SHEET
mana_table_access_counter : 2433931
mana_table_multiple_access_counter : 6132650
hobp_table_access_counter : 43777513
sab_access_counter : 11542919
srq_access_counter : 9650538

morteza: end
CPU 0 L1D next line prefetcher final stats

DRAM Statistics
 CHANNEL 0
 RQ ROW_BUFFER_HIT:    1383670  ROW_BUFFER_MISS:    3225156
 DBUS_CONGESTED:    8019010
 WQ ROW_BUFFER_HIT:    1167146  ROW_BUFFER_MISS:    3178375  FULL:          0

 AVG_CONGESTED_CYCLE: 6

CPU 0 Branch Prediction Accuracy: 99.665% MPKI: 0.78342 Average ROB Occupancy at Mispredict: 101.701

Branch types
NOT_BRANCH: 38305861 76.6117%
BRANCH_DIRECT_JUMP: 384281 0.768562%
BRANCH_INDIRECT: 71949 0.143898%
BRANCH_CONDITIONAL: 9879826 19.7597%
BRANCH_DIRECT_CALL: 650586 1.30117%
BRANCH_INDIRECT_CALL: 28456 0.056912%
BRANCH_RETURN: 679046 1.35809%
BRANCH_OTHER: 0 0%

