Initialize SIGNATURE TABLE
ST_SET: 1
ST_WAY: 256
ST_TAG_BIT: 16
ST_TAG_MASK: ffff

Initialize PATTERN TABLE
PT_SET: 512
PT_WAY: 4
SIG_DELTA_BIT: 7
C_SIG_BIT: 4
C_DELTA_BIT: 4

Initialize PREFETCH FILTER
FILTER_SET: 1024
MANA initialize 
tds: 2 tdm: 4
size MANA SINGLE: 74 KB
size MANA NULTIPLE: 43 KB
size HOBPT: 5 KB
size SRQ: 0.0644531 KB
size SABs: 0.0402832 KB
size prefetch queue: 0.453125 KB
total: 122.558 KB

*** ChampSim Multicore Out-of-Order Simulator ***

Warmup Instructions: 50000000
Simulation Instructions: 50000000
Number of CPUs: 1
LLC sets: 2048
LLC ways: 16
Off-chip DRAM Size: 4096 MB Channels: 1 Width: 64-bit Data Rate: 3200 MT/s

CPU 0 runs /home/mbaradaran/ChampSim/dpc3_traces/spec_gcc_001.champsimtrace.xz
CPU 0 L1D next line prefetcher
Heartbeat CPU 0 instructions: 10000003 cycles: 3219479 heartbeat IPC: 3.10609 cumulative IPC: 3.10609 (Simulation time: 0 hr 1 min 17 sec) 
Heartbeat CPU 0 instructions: 20000002 cycles: 6464300 heartbeat IPC: 3.08183 cumulative IPC: 3.09392 (Simulation time: 0 hr 2 min 34 sec) 
Heartbeat CPU 0 instructions: 30000000 cycles: 9662277 heartbeat IPC: 3.12698 cumulative IPC: 3.10486 (Simulation time: 0 hr 3 min 49 sec) 
Heartbeat CPU 0 instructions: 40000001 cycles: 12904755 heartbeat IPC: 3.08406 cumulative IPC: 3.09963 (Simulation time: 0 hr 5 min 9 sec) 
Heartbeat CPU 0 instructions: 50000001 cycles: 16145480 heartbeat IPC: 3.08573 cumulative IPC: 3.09684 (Simulation time: 0 hr 6 min 25 sec) 

Warmup complete CPU 0 instructions: 50000001 cycles: 16145480 (Simulation time: 0 hr 6 min 25 sec) 

Heartbeat CPU 0 instructions: 60000000 cycles: 24015397 heartbeat IPC: 1.27066 cumulative IPC: 1.27066 (Simulation time: 0 hr 7 min 29 sec) 
Heartbeat CPU 0 instructions: 70000002 cycles: 31968026 heartbeat IPC: 1.25745 cumulative IPC: 1.26402 (Simulation time: 0 hr 8 min 34 sec) 
Heartbeat CPU 0 instructions: 80000000 cycles: 39569431 heartbeat IPC: 1.31555 cumulative IPC: 1.28074 (Simulation time: 0 hr 9 min 35 sec) 
Heartbeat CPU 0 instructions: 90000003 cycles: 47480986 heartbeat IPC: 1.26397 cumulative IPC: 1.27651 (Simulation time: 0 hr 10 min 39 sec) 
Heartbeat CPU 0 instructions: 100000000 cycles: 55693723 heartbeat IPC: 1.21762 cumulative IPC: 1.26428 (Simulation time: 0 hr 11 min 45 sec) 
Finished CPU 0 instructions: 50000000 cycles: 39548247 cumulative IPC: 1.26428 (Simulation time: 0 hr 11 min 45 sec) 

ChampSim completed all CPUs

Region of Interest Statistics

CPU 0 cumulative IPC: 1.26428 instructions: 50000000 cycles: 39548247

SHEET
IPC : 1.26428

L1D TOTAL     ACCESS:   19390064  HIT:   18284885  MISS:    1105179
L1D LOAD      ACCESS:    7265634  HIT:    6786378  MISS:     479256
L1D RFO       ACCESS:    5118683  HIT:    5039034  MISS:      79649
L1D PREFETCH  ACCESS:    7005747  HIT:    6459473  MISS:     546274
L1D WRITEBACK ACCESS:          0  HIT:          0  MISS:          0
L1D PREFETCH  REQUESTED:    7309610  ISSUED:    7210200  USEFUL:     276049  USELESS:     270237
L1D AVERAGE MISS LATENCY: 25.6453 cycles
L1D

SHEET
L1D-total_access : 19390064
L1D-total_hit : 18284885
L1D-total_miss : 1105179
L1D-load_access : 7265634
L1D-load_hit : 6786378
L1D-load_miss : 479256
L1D-rfo_access : 5118683
L1D-rfo_hit : 5039034
L1D-rfo_miss : 79649
L1D-prefetch_access : 7005747
L1D-prefetch_hit : 6459473
L1D-prefetch_miss : 546274
L1D-writeback_access : 0
L1D-writeback_hit : 0
L1D-writeback_miss : 0
L1D-prefetch_requested : 7309610
L1D-prefetch_issued : 7210200
L1D-prefetch_useful : 276049
L1D-prefetch_useless : 270237
L1D-Avg_miss_latency : 25.6453
L1D-Morteza_fill_l2_prefetches : 0

L1I TOTAL     ACCESS:   23694368  HIT:   22901784  MISS:     792584
L1I LOAD      ACCESS:    9305127  HIT:    9129750  MISS:     175377
L1I RFO       ACCESS:          0  HIT:          0  MISS:          0
L1I PREFETCH  ACCESS:   14389241  HIT:   13772034  MISS:     617207
L1I WRITEBACK ACCESS:          0  HIT:          0  MISS:          0
L1I PREFETCH  REQUESTED:   16389898  ISSUED:   16360363  USEFUL:     374463  USELESS:     242711
L1I AVERAGE MISS LATENCY: 18.6188 cycles
L1I

SHEET
L1I-total_access : 23694368
L1I-total_hit : 22901784
L1I-total_miss : 792584
L1I-load_access : 9305127
L1I-load_hit : 9129750
L1I-load_miss : 175377
L1I-rfo_access : 0
L1I-rfo_hit : 0
L1I-rfo_miss : 0
L1I-prefetch_access : 14389241
L1I-prefetch_hit : 13772034
L1I-prefetch_miss : 617207
L1I-writeback_access : 0
L1I-writeback_hit : 0
L1I-writeback_miss : 0
L1I-prefetch_requested : 16389898
L1I-prefetch_issued : 16360363
L1I-prefetch_useful : 374463
L1I-prefetch_useless : 242711
L1I-Avg_miss_latency : 18.6188
L1I-Morteza_fill_l2_prefetches : 0

L2C TOTAL     ACCESS:    3119331  HIT:    2860993  MISS:     258338
L2C LOAD      ACCESS:     573324  HIT:     491723  MISS:      81601
L2C RFO       ACCESS:      75012  HIT:      36255  MISS:      38757
L2C PREFETCH  ACCESS:    2217228  HIT:    2079676  MISS:     137552
L2C WRITEBACK ACCESS:     253767  HIT:     253339  MISS:        428
L2C PREFETCH  REQUESTED:    2080149  ISSUED:    2080023  USEFUL:      32828  USELESS:     104048
L2C AVERAGE MISS LATENCY: 65.8249 cycles
L2C

SHEET
L2C-total_access : 3119331
L2C-total_hit : 2860993
L2C-total_miss : 258338
L2C-load_access : 573324
L2C-load_hit : 491723
L2C-load_miss : 81601
L2C-rfo_access : 75012
L2C-rfo_hit : 36255
L2C-rfo_miss : 38757
L2C-prefetch_access : 2217228
L2C-prefetch_hit : 2079676
L2C-prefetch_miss : 137552
L2C-writeback_access : 253767
L2C-writeback_hit : 253339
L2C-writeback_miss : 428
L2C-prefetch_requested : 2080149
L2C-prefetch_issued : 2080023
L2C-prefetch_useful : 32828
L2C-prefetch_useless : 104048
L2C-Avg_miss_latency : 65.8249
L2C-Morteza_fill_l2_prefetches : 975760

LLC TOTAL     ACCESS:     699861  HIT:     622865  MISS:      76996
LLC LOAD      ACCESS:      81402  HIT:      71509  MISS:       9893
LLC RFO       ACCESS:      38757  HIT:      17755  MISS:      21002
LLC PREFETCH  ACCESS:     488031  HIT:     442986  MISS:      45045
LLC WRITEBACK ACCESS:      91671  HIT:      90615  MISS:       1056
LLC PREFETCH  REQUESTED:          0  ISSUED:          0  USEFUL:      12272  USELESS:      33255
LLC AVERAGE MISS LATENCY: 188.842 cycles
LLC

SHEET
LLC-total_access : 699861
LLC-total_hit : 622865
LLC-total_miss : 76996
LLC-load_access : 81402
LLC-load_hit : 71509
LLC-load_miss : 9893
LLC-rfo_access : 38757
LLC-rfo_hit : 17755
LLC-rfo_miss : 21002
LLC-prefetch_access : 488031
LLC-prefetch_hit : 442986
LLC-prefetch_miss : 45045
LLC-writeback_access : 91671
LLC-writeback_hit : 90615
LLC-writeback_miss : 1056
LLC-prefetch_requested : 0
LLC-prefetch_issued : 0
LLC-prefetch_useful : 12272
LLC-prefetch_useless : 33255
LLC-Avg_miss_latency : 188.842
LLC-Morteza_fill_l2_prefetches : 327041

Major fault: 0 Minor fault: 6989



Printing Logs
statHeadFound: 2939000
statHeadMissing: 1661600
statStreamBufferHit: 10616524
statPrefetchEntryFound: 10425100
statCompactorMatch: 13117291
statStreamTrackerLookup: 15217124
statRecord: 2099833
statGetPointer: 4600600
statEnqueuePrefetch: 31436937
statPrefetchQueueIsFull: 32428
StreamBufferHitRate: 0.69767
Regions' size: 13242
next_region_correct: 1324533
next_region_wrong: 762050
next_region_correct_prediction: 0.634786
statStreamBufferLookups: 152171240
statL1iLookups: 251495496
statCompactorLookups: 243473984
morteza: start

SHEET
mana_table_access_counter : 4313698
mana_table_multiple_access_counter : 11240543
hobp_table_access_counter : 55758115
sab_access_counter : 21041624
srq_access_counter : 14709460

morteza: end
CPU 0 L1D next line prefetcher final stats

DRAM Statistics
 CHANNEL 0
 RQ ROW_BUFFER_HIT:      19678  ROW_BUFFER_MISS:      56257
 DBUS_CONGESTED:      40392
 WQ ROW_BUFFER_HIT:       4258  ROW_BUFFER_MISS:      24124  FULL:          0

 AVG_CONGESTED_CYCLE: 6

CPU 0 Branch Prediction Accuracy: 95.8872% MPKI: 9.67286 Average ROB Occupancy at Mispredict: 64.8814

Branch types
NOT_BRANCH: 38240102 76.4802%
BRANCH_DIRECT_JUMP: 653296 1.30659%
BRANCH_INDIRECT: 37098 0.074196%
BRANCH_CONDITIONAL: 8897819 17.7956%
BRANCH_DIRECT_CALL: 992620 1.98524%
BRANCH_INDIRECT_CALL: 93046 0.186092%
BRANCH_RETURN: 1085674 2.17135%
BRANCH_OTHER: 0 0%

