Initialize SIGNATURE TABLE
ST_SET: 1
ST_WAY: 256
ST_TAG_BIT: 16
ST_TAG_MASK: ffff

Initialize PATTERN TABLE
PT_SET: 512
PT_WAY: 4
SIG_DELTA_BIT: 7
C_SIG_BIT: 4
C_DELTA_BIT: 4

Initialize PREFETCH FILTER
FILTER_SET: 1024
MANA initialize 
tds: 2 tdm: 4
size MANA SINGLE: 74 KB
size MANA NULTIPLE: 43 KB
size HOBPT: 5 KB
size SRQ: 0.14502 KB
size SABs: 0.290039 KB
size prefetch queue: 0.453125 KB
total: 122.888 KB

*** ChampSim Multicore Out-of-Order Simulator ***

Warmup Instructions: 50000000
Simulation Instructions: 50000000
Number of CPUs: 1
LLC sets: 2048
LLC ways: 16
Off-chip DRAM Size: 4096 MB Channels: 1 Width: 64-bit Data Rate: 3200 MT/s

CPU 0 runs /home/mbaradaran/ChampSim/dpc3_traces/server_030.champsimtrace.xz
CPU 0 L1D next line prefetcher
Heartbeat CPU 0 instructions: 10000003 cycles: 3515533 heartbeat IPC: 2.84452 cumulative IPC: 2.84452 (Simulation time: 0 hr 1 min 27 sec) 
Heartbeat CPU 0 instructions: 20000003 cycles: 7031401 heartbeat IPC: 2.84425 cumulative IPC: 2.84438 (Simulation time: 0 hr 2 min 48 sec) 
Heartbeat CPU 0 instructions: 30000000 cycles: 10545831 heartbeat IPC: 2.84541 cumulative IPC: 2.84473 (Simulation time: 0 hr 4 min 9 sec) 
Heartbeat CPU 0 instructions: 40000002 cycles: 14060314 heartbeat IPC: 2.84537 cumulative IPC: 2.84489 (Simulation time: 0 hr 5 min 31 sec) 
Heartbeat CPU 0 instructions: 50000002 cycles: 17577939 heartbeat IPC: 2.84283 cumulative IPC: 2.84447 (Simulation time: 0 hr 6 min 51 sec) 

Warmup complete CPU 0 instructions: 50000002 cycles: 17577939 (Simulation time: 0 hr 6 min 51 sec) 

Heartbeat CPU 0 instructions: 60000000 cycles: 24819535 heartbeat IPC: 1.38091 cumulative IPC: 1.38091 (Simulation time: 0 hr 8 min 15 sec) 
Heartbeat CPU 0 instructions: 70000000 cycles: 32082404 heartbeat IPC: 1.37687 cumulative IPC: 1.37889 (Simulation time: 0 hr 9 min 44 sec) 
Heartbeat CPU 0 instructions: 80000001 cycles: 39318178 heartbeat IPC: 1.38202 cumulative IPC: 1.37993 (Simulation time: 0 hr 11 min 16 sec) 
*** Reached end of trace for Core: 0 Repeating trace: /home/mbaradaran/ChampSim/dpc3_traces/server_030.champsimtrace.xz
Heartbeat CPU 0 instructions: 90000002 cycles: 46567356 heartbeat IPC: 1.37947 cumulative IPC: 1.37981 (Simulation time: 0 hr 12 min 42 sec) 
Heartbeat CPU 0 instructions: 100000002 cycles: 53781534 heartbeat IPC: 1.38616 cumulative IPC: 1.38108 (Simulation time: 0 hr 14 min 14 sec) 
Finished CPU 0 instructions: 50000000 cycles: 36203595 cumulative IPC: 1.38108 (Simulation time: 0 hr 14 min 14 sec) 

ChampSim completed all CPUs

Region of Interest Statistics

CPU 0 cumulative IPC: 1.38108 instructions: 50000000 cycles: 36203595

SHEET
IPC : 1.38108

L1D TOTAL     ACCESS:   19354336  HIT:   17278124  MISS:    2076212
L1D LOAD      ACCESS:    6855263  HIT:    5803194  MISS:    1052069
L1D RFO       ACCESS:    6184098  HIT:    5897768  MISS:     286330
L1D PREFETCH  ACCESS:    6314975  HIT:    5577162  MISS:     737813
L1D WRITEBACK ACCESS:          0  HIT:          0  MISS:          0
L1D PREFETCH  REQUESTED:    6908154  ISSUED:    6777564  USEFUL:     182483  USELESS:     555423
L1D AVERAGE MISS LATENCY: 19.6571 cycles
L1D

SHEET
L1D-total_access : 19354336
L1D-total_hit : 17278124
L1D-total_miss : 2076212
L1D-load_access : 6855263
L1D-load_hit : 5803194
L1D-load_miss : 1052069
L1D-rfo_access : 6184098
L1D-rfo_hit : 5897768
L1D-rfo_miss : 286330
L1D-prefetch_access : 6314975
L1D-prefetch_hit : 5577162
L1D-prefetch_miss : 737813
L1D-writeback_access : 0
L1D-writeback_hit : 0
L1D-writeback_miss : 0
L1D-prefetch_requested : 6908154
L1D-prefetch_issued : 6777564
L1D-prefetch_useful : 182483
L1D-prefetch_useless : 555423
L1D-Avg_miss_latency : 19.6571
L1D-Morteza_fill_l2_prefetches : 0

L1I TOTAL     ACCESS:   17729483  HIT:   13332277  MISS:    4397206
L1I LOAD      ACCESS:    9652918  HIT:    9100520  MISS:     552398
L1I RFO       ACCESS:          0  HIT:          0  MISS:          0
L1I PREFETCH  ACCESS:    8076565  HIT:    4231757  MISS:    3844808
L1I WRITEBACK ACCESS:          0  HIT:          0  MISS:          0
L1I PREFETCH  REQUESTED:    8792821  ISSUED:    8701310  USEFUL:    2603513  USELESS:    1241328
L1I AVERAGE MISS LATENCY: 16.548 cycles
L1I

SHEET
L1I-total_access : 17729483
L1I-total_hit : 13332277
L1I-total_miss : 4397206
L1I-load_access : 9652918
L1I-load_hit : 9100520
L1I-load_miss : 552398
L1I-rfo_access : 0
L1I-rfo_hit : 0
L1I-rfo_miss : 0
L1I-prefetch_access : 8076565
L1I-prefetch_hit : 4231757
L1I-prefetch_miss : 3844808
L1I-writeback_access : 0
L1I-writeback_hit : 0
L1I-writeback_miss : 0
L1I-prefetch_requested : 8792821
L1I-prefetch_issued : 8701310
L1I-prefetch_useful : 2603513
L1I-prefetch_useless : 1241328
L1I-Avg_miss_latency : 16.548
L1I-Morteza_fill_l2_prefetches : 0

L2C TOTAL     ACCESS:    8792718  HIT:    8063111  MISS:     729607
L2C LOAD      ACCESS:    1272861  HIT:    1078838  MISS:     194023
L2C RFO       ACCESS:     283855  HIT:     223899  MISS:      59956
L2C PREFETCH  ACCESS:    6620518  HIT:    6146574  MISS:     473944
L2C WRITEBACK ACCESS:     615484  HIT:     613800  MISS:       1684
L2C PREFETCH  REQUESTED:    7196073  ISSUED:    7177315  USEFUL:      25082  USELESS:     448194
L2C AVERAGE MISS LATENCY: 34.2348 cycles
L2C

SHEET
L2C-total_access : 8792718
L2C-total_hit : 8063111
L2C-total_miss : 729607
L2C-load_access : 1272861
L2C-load_hit : 1078838
L2C-load_miss : 194023
L2C-rfo_access : 283855
L2C-rfo_hit : 223899
L2C-rfo_miss : 59956
L2C-prefetch_access : 6620518
L2C-prefetch_hit : 6146574
L2C-prefetch_miss : 473944
L2C-writeback_access : 615484
L2C-writeback_hit : 613800
L2C-writeback_miss : 1684
L2C-prefetch_requested : 7196073
L2C-prefetch_issued : 7177315
L2C-prefetch_useful : 25082
L2C-prefetch_useless : 448194
L2C-Avg_miss_latency : 34.2348
L2C-Morteza_fill_l2_prefetches : 1765436

LLC TOTAL     ACCESS:    2697903  HIT:    2678817  MISS:      19086
LLC LOAD      ACCESS:     193659  HIT:     190935  MISS:       2724
LLC RFO       ACCESS:      59956  HIT:      58224  MISS:       1732
LLC PREFETCH  ACCESS:    2320064  HIT:    2305533  MISS:      14531
LLC WRITEBACK ACCESS:     124224  HIT:     124125  MISS:         99
LLC PREFETCH  REQUESTED:          0  ISSUED:          0  USEFUL:        935  USELESS:      12730
LLC AVERAGE MISS LATENCY: 145.558 cycles
LLC

SHEET
LLC-total_access : 2697903
LLC-total_hit : 2678817
LLC-total_miss : 19086
LLC-load_access : 193659
LLC-load_hit : 190935
LLC-load_miss : 2724
LLC-rfo_access : 59956
LLC-rfo_hit : 58224
LLC-rfo_miss : 1732
LLC-prefetch_access : 2320064
LLC-prefetch_hit : 2305533
LLC-prefetch_miss : 14531
LLC-writeback_access : 124224
LLC-writeback_hit : 124125
LLC-writeback_miss : 99
LLC-prefetch_requested : 0
LLC-prefetch_issued : 0
LLC-prefetch_useful : 935
LLC-prefetch_useless : 12730
LLC-Avg_miss_latency : 145.558
LLC-Morteza_fill_l2_prefetches : 1857084

Major fault: 0 Minor fault: 2102



Printing Logs
statHeadFound: 628318
statHeadMissing: 621020
statStreamBufferHit: 13273085
statPrefetchEntryFound: 5818466
statCompactorMatch: 11790924
statStreamTrackerLookup: 14522423
statRecord: 2731499
statGetPointer: 1249338
statEnqueuePrefetch: 17304777
statPrefetchQueueIsFull: 926
StreamBufferHitRate: 0.913972
Regions' size: 2006
next_region_correct: 1926730
next_region_wrong: 802745
next_region_correct_prediction: 0.705898
statStreamBufferLookups: 1045614456
statL1iLookups: 138438216
statCompactorLookups: 522807228
morteza: start

SHEET
mana_table_access_counter : 4972365
mana_table_multiple_access_counter : 4209631
hobp_table_access_counter : 26744726
sab_access_counter : 19091551
srq_access_counter : 15960040

morteza: end
CPU 0 L1D next line prefetcher final stats

DRAM Statistics
 CHANNEL 0
 RQ ROW_BUFFER_HIT:       6353  ROW_BUFFER_MISS:      12634
 DBUS_CONGESTED:       6481
 WQ ROW_BUFFER_HIT:        135  ROW_BUFFER_MISS:       2129  FULL:          0

 AVG_CONGESTED_CYCLE: 5

CPU 0 Branch Prediction Accuracy: 99.8445% MPKI: 0.29148 Average ROB Occupancy at Mispredict: 165.161

Branch types
NOT_BRANCH: 40628040 81.2561%
BRANCH_DIRECT_JUMP: 490941 0.981882%
BRANCH_INDIRECT: 175854 0.351708%
BRANCH_CONDITIONAL: 6321411 12.6428%
BRANCH_DIRECT_CALL: 1002072 2.00414%
BRANCH_INDIRECT_CALL: 189783 0.379566%
BRANCH_RETURN: 1191851 2.3837%
BRANCH_OTHER: 0 0%

