Initialize SIGNATURE TABLE
ST_SET: 1
ST_WAY: 256
ST_TAG_BIT: 16
ST_TAG_MASK: ffff

Initialize PATTERN TABLE
PT_SET: 512
PT_WAY: 4
SIG_DELTA_BIT: 7
C_SIG_BIT: 4
C_DELTA_BIT: 4

Initialize PREFETCH FILTER
FILTER_SET: 1024
MANA initialize 
tds: 2 tdm: 4
size MANA SINGLE: 74 KB
size MANA NULTIPLE: 43 KB
size HOBPT: 5 KB
size SRQ: 0.14502 KB
size SABs: 0.290039 KB
size prefetch queue: 0.453125 KB
total: 122.888 KB

*** ChampSim Multicore Out-of-Order Simulator ***

Warmup Instructions: 50000000
Simulation Instructions: 50000000
Number of CPUs: 1
LLC sets: 2048
LLC ways: 16
Off-chip DRAM Size: 4096 MB Channels: 1 Width: 64-bit Data Rate: 3200 MT/s

CPU 0 runs /home/mbaradaran/ChampSim/dpc3_traces/server_037.champsimtrace.xz
CPU 0 L1D next line prefetcher
Heartbeat CPU 0 instructions: 10000001 cycles: 3320877 heartbeat IPC: 3.01125 cumulative IPC: 3.01125 (Simulation time: 0 hr 1 min 30 sec) 
Heartbeat CPU 0 instructions: 20000002 cycles: 6638785 heartbeat IPC: 3.01395 cumulative IPC: 3.0126 (Simulation time: 0 hr 3 min 0 sec) 
Heartbeat CPU 0 instructions: 30000003 cycles: 10004724 heartbeat IPC: 2.97094 cumulative IPC: 2.99858 (Simulation time: 0 hr 4 min 26 sec) 
Heartbeat CPU 0 instructions: 40000000 cycles: 13324711 heartbeat IPC: 3.01206 cumulative IPC: 3.00194 (Simulation time: 0 hr 5 min 52 sec) 
Heartbeat CPU 0 instructions: 50000003 cycles: 16643948 heartbeat IPC: 3.01274 cumulative IPC: 3.0041 (Simulation time: 0 hr 7 min 15 sec) 

Warmup complete CPU 0 instructions: 50000003 cycles: 16643948 (Simulation time: 0 hr 7 min 15 sec) 

Heartbeat CPU 0 instructions: 60000001 cycles: 23050141 heartbeat IPC: 1.56099 cumulative IPC: 1.56099 (Simulation time: 0 hr 8 min 38 sec) 
Heartbeat CPU 0 instructions: 70000002 cycles: 29542941 heartbeat IPC: 1.54017 cumulative IPC: 1.55051 (Simulation time: 0 hr 10 min 0 sec) 
Heartbeat CPU 0 instructions: 80000000 cycles: 35934119 heartbeat IPC: 1.56466 cumulative IPC: 1.5552 (Simulation time: 0 hr 11 min 22 sec) 
Heartbeat CPU 0 instructions: 90000002 cycles: 42341817 heartbeat IPC: 1.56062 cumulative IPC: 1.55655 (Simulation time: 0 hr 12 min 43 sec) 
*** Reached end of trace for Core: 0 Repeating trace: /home/mbaradaran/ChampSim/dpc3_traces/server_037.champsimtrace.xz
Heartbeat CPU 0 instructions: 100000000 cycles: 48756376 heartbeat IPC: 1.55895 cumulative IPC: 1.55703 (Simulation time: 0 hr 14 min 3 sec) 
Finished CPU 0 instructions: 50000001 cycles: 32112429 cumulative IPC: 1.55703 (Simulation time: 0 hr 14 min 3 sec) 

ChampSim completed all CPUs

Region of Interest Statistics

CPU 0 cumulative IPC: 1.55703 instructions: 50000001 cycles: 32112429

SHEET
IPC : 1.55703

L1D TOTAL     ACCESS:   18702985  HIT:   17725024  MISS:     977961
L1D LOAD      ACCESS:    6366201  HIT:    5875018  MISS:     491183
L1D RFO       ACCESS:    6207377  HIT:    6143326  MISS:      64051
L1D PREFETCH  ACCESS:    6129407  HIT:    5706680  MISS:     422727
L1D WRITEBACK ACCESS:          0  HIT:          0  MISS:          0
L1D PREFETCH  REQUESTED:    6403228  ISSUED:    6250699  USEFUL:     117591  USELESS:     305140
L1D AVERAGE MISS LATENCY: 29.0764 cycles
L1D

SHEET
L1D-total_access : 18702985
L1D-total_hit : 17725024
L1D-total_miss : 977961
L1D-load_access : 6366201
L1D-load_hit : 5875018
L1D-load_miss : 491183
L1D-rfo_access : 6207377
L1D-rfo_hit : 6143326
L1D-rfo_miss : 64051
L1D-prefetch_access : 6129407
L1D-prefetch_hit : 5706680
L1D-prefetch_miss : 422727
L1D-writeback_access : 0
L1D-writeback_hit : 0
L1D-writeback_miss : 0
L1D-prefetch_requested : 6403228
L1D-prefetch_issued : 6250699
L1D-prefetch_useful : 117591
L1D-prefetch_useless : 305140
L1D-Avg_miss_latency : 29.0764
L1D-Morteza_fill_l2_prefetches : 0

L1I TOTAL     ACCESS:   16709443  HIT:   12377069  MISS:    4332374
L1I LOAD      ACCESS:    9343290  HIT:    9087090  MISS:     256200
L1I RFO       ACCESS:          0  HIT:          0  MISS:          0
L1I PREFETCH  ACCESS:    7366153  HIT:    3289979  MISS:    4076174
L1I WRITEBACK ACCESS:          0  HIT:          0  MISS:          0
L1I PREFETCH  REQUESTED:    7700103  ISSUED:    7615827  USEFUL:    3762593  USELESS:     313611
L1I AVERAGE MISS LATENCY: 14.774 cycles
L1I

SHEET
L1I-total_access : 16709443
L1I-total_hit : 12377069
L1I-total_miss : 4332374
L1I-load_access : 9343290
L1I-load_hit : 9087090
L1I-load_miss : 256200
L1I-rfo_access : 0
L1I-rfo_hit : 0
L1I-rfo_miss : 0
L1I-prefetch_access : 7366153
L1I-prefetch_hit : 3289979
L1I-prefetch_miss : 4076174
L1I-writeback_access : 0
L1I-writeback_hit : 0
L1I-writeback_miss : 0
L1I-prefetch_requested : 7700103
L1I-prefetch_issued : 7615827
L1I-prefetch_useful : 3762593
L1I-prefetch_useless : 313611
L1I-Avg_miss_latency : 14.774
L1I-Morteza_fill_l2_prefetches : 0

L2C TOTAL     ACCESS:    7757196  HIT:    7447811  MISS:     309385
L2C LOAD      ACCESS:     649574  HIT:     509938  MISS:     139636
L2C RFO       ACCESS:      63771  HIT:      36663  MISS:      27108
L2C PREFETCH  ACCESS:    6754353  HIT:    6612822  MISS:     141531
L2C WRITEBACK ACCESS:     289498  HIT:     288388  MISS:       1110
L2C PREFETCH  REQUESTED:    6979341  ISSUED:    6955221  USEFUL:       6905  USELESS:     134481
L2C AVERAGE MISS LATENCY: 45.8705 cycles
L2C

SHEET
L2C-total_access : 7757196
L2C-total_hit : 7447811
L2C-total_miss : 309385
L2C-load_access : 649574
L2C-load_hit : 509938
L2C-load_miss : 139636
L2C-rfo_access : 63771
L2C-rfo_hit : 36663
L2C-rfo_miss : 27108
L2C-prefetch_access : 6754353
L2C-prefetch_hit : 6612822
L2C-prefetch_miss : 141531
L2C-writeback_access : 289498
L2C-writeback_hit : 288388
L2C-writeback_miss : 1110
L2C-prefetch_requested : 6979341
L2C-prefetch_issued : 6955221
L2C-prefetch_useful : 6905
L2C-prefetch_useless : 134481
L2C-Avg_miss_latency : 45.8705
L2C-Morteza_fill_l2_prefetches : 2206773

LLC TOTAL     ACCESS:    1820223  HIT:    1762180  MISS:      58043
LLC LOAD      ACCESS:     139623  HIT:     126970  MISS:      12653
LLC RFO       ACCESS:      27107  HIT:      22597  MISS:       4510
LLC PREFETCH  ACCESS:    1513555  HIT:    1473328  MISS:      40227
LLC WRITEBACK ACCESS:     139938  HIT:     139285  MISS:        653
LLC PREFETCH  REQUESTED:          0  ISSUED:          0  USEFUL:       4925  USELESS:      35480
LLC AVERAGE MISS LATENCY: 167.791 cycles
LLC

SHEET
LLC-total_access : 1820223
LLC-total_hit : 1762180
LLC-total_miss : 58043
LLC-load_access : 139623
LLC-load_hit : 126970
LLC-load_miss : 12653
LLC-rfo_access : 27107
LLC-rfo_hit : 22597
LLC-rfo_miss : 4510
LLC-prefetch_access : 1513555
LLC-prefetch_hit : 1473328
LLC-prefetch_miss : 40227
LLC-writeback_access : 139938
LLC-writeback_hit : 139285
LLC-writeback_miss : 653
LLC-prefetch_requested : 0
LLC-prefetch_issued : 0
LLC-prefetch_useful : 4925
LLC-prefetch_useless : 35480
LLC-Avg_miss_latency : 167.791
LLC-Morteza_fill_l2_prefetches : 1350262

Major fault: 0 Minor fault: 5703



Printing Logs
statHeadFound: 292849
statHeadMissing: 546048
statStreamBufferHit: 13711868
statPrefetchEntryFound: 4828855
statCompactorMatch: 11313258
statStreamTrackerLookup: 14550765
statRecord: 3237507
statGetPointer: 838897
statEnqueuePrefetch: 15229068
statPrefetchQueueIsFull: 0
StreamBufferHitRate: 0.942347
Regions' size: 1122
next_region_correct: 2592213
next_region_wrong: 644154
next_region_correct_prediction: 0.800964
statStreamBufferLookups: 1047655080
statL1iLookups: 121832544
statCompactorLookups: 523827540
morteza: start

SHEET
mana_table_access_counter : 5669629
mana_table_multiple_access_counter : 2690773
hobp_table_access_counter : 24492017
sab_access_counter : 18540723
srq_access_counter : 16716557

morteza: end
CPU 0 L1D next line prefetcher final stats

DRAM Statistics
 CHANNEL 0
 RQ ROW_BUFFER_HIT:       9444  ROW_BUFFER_MISS:      47945
 DBUS_CONGESTED:      27047
 WQ ROW_BUFFER_HIT:       1241  ROW_BUFFER_MISS:      10774  FULL:          0

 AVG_CONGESTED_CYCLE: 5

CPU 0 Branch Prediction Accuracy: 99.913% MPKI: 0.15656 Average ROB Occupancy at Mispredict: 205.826

Branch types
NOT_BRANCH: 41001720 82.0034%
BRANCH_DIRECT_JUMP: 541941 1.08388%
BRANCH_INDIRECT: 59716 0.119432%
BRANCH_CONDITIONAL: 5916852 11.8337%
BRANCH_DIRECT_CALL: 1005465 2.01093%
BRANCH_INDIRECT_CALL: 234433 0.468866%
BRANCH_RETURN: 1239877 2.47975%
BRANCH_OTHER: 0 0%

