Initialize SIGNATURE TABLE
ST_SET: 1
ST_WAY: 256
ST_TAG_BIT: 16
ST_TAG_MASK: ffff

Initialize PATTERN TABLE
PT_SET: 512
PT_WAY: 4
SIG_DELTA_BIT: 7
C_SIG_BIT: 4
C_DELTA_BIT: 4

Initialize PREFETCH FILTER
FILTER_SET: 1024
MANA initialize 
tds: 2 tdm: 4
size MANA SINGLE: 74 KB
size MANA NULTIPLE: 43 KB
size HOBPT: 5 KB
size SRQ: 0.14502 KB
size SABs: 0.290039 KB
size prefetch queue: 0.453125 KB
total: 122.888 KB

*** ChampSim Multicore Out-of-Order Simulator ***

Warmup Instructions: 50000000
Simulation Instructions: 50000000
Number of CPUs: 1
LLC sets: 2048
LLC ways: 16
Off-chip DRAM Size: 4096 MB Channels: 1 Width: 64-bit Data Rate: 3200 MT/s

CPU 0 runs /home/mbaradaran/ChampSim/dpc3_traces/server_032.champsimtrace.xz
CPU 0 L1D next line prefetcher
Heartbeat CPU 0 instructions: 10000002 cycles: 3530646 heartbeat IPC: 2.83234 cumulative IPC: 2.83234 (Simulation time: 0 hr 1 min 28 sec) 
Heartbeat CPU 0 instructions: 20000003 cycles: 7061963 heartbeat IPC: 2.8318 cumulative IPC: 2.83207 (Simulation time: 0 hr 2 min 53 sec) 
Heartbeat CPU 0 instructions: 30000000 cycles: 10592969 heartbeat IPC: 2.83205 cumulative IPC: 2.83207 (Simulation time: 0 hr 4 min 16 sec) 
Heartbeat CPU 0 instructions: 40000003 cycles: 14125286 heartbeat IPC: 2.831 cumulative IPC: 2.8318 (Simulation time: 0 hr 5 min 39 sec) 
Heartbeat CPU 0 instructions: 50000000 cycles: 17656292 heartbeat IPC: 2.83205 cumulative IPC: 2.83185 (Simulation time: 0 hr 7 min 4 sec) 

Warmup complete CPU 0 instructions: 50000004 cycles: 17656293 (Simulation time: 0 hr 7 min 4 sec) 

Heartbeat CPU 0 instructions: 60000002 cycles: 24501812 heartbeat IPC: 1.46081 cumulative IPC: 1.46081 (Simulation time: 0 hr 8 min 31 sec) 
Heartbeat CPU 0 instructions: 70000000 cycles: 31348375 heartbeat IPC: 1.46059 cumulative IPC: 1.4607 (Simulation time: 0 hr 10 min 0 sec) 
*** Reached end of trace for Core: 0 Repeating trace: /home/mbaradaran/ChampSim/dpc3_traces/server_032.champsimtrace.xz
Heartbeat CPU 0 instructions: 80000003 cycles: 38194357 heartbeat IPC: 1.46071 cumulative IPC: 1.4607 (Simulation time: 0 hr 11 min 36 sec) 
Heartbeat CPU 0 instructions: 90000002 cycles: 45011530 heartbeat IPC: 1.46688 cumulative IPC: 1.46224 (Simulation time: 0 hr 13 min 10 sec) 
Heartbeat CPU 0 instructions: 100000001 cycles: 51841480 heartbeat IPC: 1.46414 cumulative IPC: 1.46262 (Simulation time: 0 hr 14 min 41 sec) 
Finished CPU 0 instructions: 50000002 cycles: 34185189 cumulative IPC: 1.46262 (Simulation time: 0 hr 14 min 41 sec) 

ChampSim completed all CPUs

Region of Interest Statistics

CPU 0 cumulative IPC: 1.46262 instructions: 50000002 cycles: 34185189

SHEET
IPC : 1.46262

L1D TOTAL     ACCESS:   19977370  HIT:   18148966  MISS:    1828404
L1D LOAD      ACCESS:    6850090  HIT:    6056294  MISS:     793796
L1D RFO       ACCESS:    6552299  HIT:    6258257  MISS:     294042
L1D PREFETCH  ACCESS:    6574981  HIT:    5834415  MISS:     740566
L1D WRITEBACK ACCESS:          0  HIT:          0  MISS:          0
L1D PREFETCH  REQUESTED:    6898159  ISSUED:    6765159  USEFUL:     170584  USELESS:     569981
L1D AVERAGE MISS LATENCY: 18.9226 cycles
L1D

SHEET
L1D-total_access : 19977370
L1D-total_hit : 18148966
L1D-total_miss : 1828404
L1D-load_access : 6850090
L1D-load_hit : 6056294
L1D-load_miss : 793796
L1D-rfo_access : 6552299
L1D-rfo_hit : 6258257
L1D-rfo_miss : 294042
L1D-prefetch_access : 6574981
L1D-prefetch_hit : 5834415
L1D-prefetch_miss : 740566
L1D-writeback_access : 0
L1D-writeback_hit : 0
L1D-writeback_miss : 0
L1D-prefetch_requested : 6898159
L1D-prefetch_issued : 6765159
L1D-prefetch_useful : 170584
L1D-prefetch_useless : 569981
L1D-Avg_miss_latency : 18.9226
L1D-Morteza_fill_l2_prefetches : 0

L1I TOTAL     ACCESS:   17679266  HIT:   13198934  MISS:    4480332
L1I LOAD      ACCESS:    9503268  HIT:    8947537  MISS:     555731
L1I RFO       ACCESS:          0  HIT:          0  MISS:          0
L1I PREFETCH  ACCESS:    8175998  HIT:    4251397  MISS:    3924601
L1I WRITEBACK ACCESS:          0  HIT:          0  MISS:          0
L1I PREFETCH  REQUESTED:    8835500  ISSUED:    8765646  USEFUL:    2814082  USELESS:    1110527
L1I AVERAGE MISS LATENCY: 16.2144 cycles
L1I

SHEET
L1I-total_access : 17679266
L1I-total_hit : 13198934
L1I-total_miss : 4480332
L1I-load_access : 9503268
L1I-load_hit : 8947537
L1I-load_miss : 555731
L1I-rfo_access : 0
L1I-rfo_hit : 0
L1I-rfo_miss : 0
L1I-prefetch_access : 8175998
L1I-prefetch_hit : 4251397
L1I-prefetch_miss : 3924601
L1I-writeback_access : 0
L1I-writeback_hit : 0
L1I-writeback_miss : 0
L1I-prefetch_requested : 8835500
L1I-prefetch_issued : 8765646
L1I-prefetch_useful : 2814082
L1I-prefetch_useless : 1110527
L1I-Avg_miss_latency : 16.2144
L1I-Morteza_fill_l2_prefetches : 0

L2C TOTAL     ACCESS:    8670263  HIT:    8158901  MISS:     511362
L2C LOAD      ACCESS:    1167857  HIT:    1054233  MISS:     113624
L2C RFO       ACCESS:     292636  HIT:     246720  MISS:      45916
L2C PREFETCH  ACCESS:    6573501  HIT:    6226930  MISS:     346571
L2C WRITEBACK ACCESS:     636269  HIT:     631018  MISS:       5251
L2C PREFETCH  REQUESTED:    7300101  ISSUED:    7268375  USEFUL:       7565  USELESS:     338873
L2C AVERAGE MISS LATENCY: 33.4593 cycles
L2C

SHEET
L2C-total_access : 8670263
L2C-total_hit : 8158901
L2C-total_miss : 511362
L2C-load_access : 1167857
L2C-load_hit : 1054233
L2C-load_miss : 113624
L2C-rfo_access : 292636
L2C-rfo_hit : 246720
L2C-rfo_miss : 45916
L2C-prefetch_access : 6573501
L2C-prefetch_hit : 6226930
L2C-prefetch_miss : 346571
L2C-writeback_access : 636269
L2C-writeback_hit : 631018
L2C-writeback_miss : 5251
L2C-prefetch_requested : 7300101
L2C-prefetch_issued : 7268375
L2C-prefetch_useful : 7565
L2C-prefetch_useless : 338873
L2C-Avg_miss_latency : 33.4593
L2C-Morteza_fill_l2_prefetches : 1745483

LLC TOTAL     ACCESS:    2684949  HIT:    2678094  MISS:       6855
LLC LOAD      ACCESS:     113612  HIT:     113112  MISS:        500
LLC RFO       ACCESS:      45916  HIT:      45916  MISS:          0
LLC PREFETCH  ACCESS:    2438833  HIT:    2432508  MISS:       6325
LLC WRITEBACK ACCESS:      86588  HIT:      86558  MISS:         30
LLC PREFETCH  REQUESTED:          0  ISSUED:          0  USEFUL:        382  USELESS:       1975
LLC AVERAGE MISS LATENCY: 150.761 cycles
LLC

SHEET
LLC-total_access : 2684949
LLC-total_hit : 2678094
LLC-total_miss : 6855
LLC-load_access : 113612
LLC-load_hit : 113112
LLC-load_miss : 500
LLC-rfo_access : 45916
LLC-rfo_hit : 45916
LLC-rfo_miss : 0
LLC-prefetch_access : 2438833
LLC-prefetch_hit : 2432508
LLC-prefetch_miss : 6325
LLC-writeback_access : 86588
LLC-writeback_hit : 86558
LLC-writeback_miss : 30
LLC-prefetch_requested : 0
LLC-prefetch_issued : 0
LLC-prefetch_useful : 382
LLC-prefetch_useless : 1975
LLC-Avg_miss_latency : 150.761
LLC-Morteza_fill_l2_prefetches : 2094809

Major fault: 0 Minor fault: 1239



Printing Logs
statHeadFound: 606012
statHeadMissing: 729263
statStreamBufferHit: 13187266
statPrefetchEntryFound: 5930846
statCompactorMatch: 11582721
statStreamTrackerLookup: 14522541
statRecord: 2939820
statGetPointer: 1335275
statEnqueuePrefetch: 17598540
statPrefetchQueueIsFull: 9
StreamBufferHitRate: 0.908055
Regions' size: 1360
next_region_correct: 2101550
next_region_wrong: 836892
next_region_correct_prediction: 0.715192
statStreamBufferLookups: 1045622952
statL1iLookups: 140788320
statCompactorLookups: 522811476
morteza: start

SHEET
mana_table_access_counter : 5689452
mana_table_multiple_access_counter : 3789098
hobp_table_access_counter : 28375429
sab_access_counter : 19118112
srq_access_counter : 16093856

morteza: end
CPU 0 L1D next line prefetcher final stats

DRAM Statistics
 CHANNEL 0
 RQ ROW_BUFFER_HIT:       1680  ROW_BUFFER_MISS:       5145
 DBUS_CONGESTED:        882
 WQ ROW_BUFFER_HIT:          0  ROW_BUFFER_MISS:         25  FULL:          0

 AVG_CONGESTED_CYCLE: 4

CPU 0 Branch Prediction Accuracy: 99.8762% MPKI: 0.2296 Average ROB Occupancy at Mispredict: 178.463

Branch types
NOT_BRANCH: 40726125 81.4522%
BRANCH_DIRECT_JUMP: 508373 1.01675%
BRANCH_INDIRECT: 180051 0.360102%
BRANCH_CONDITIONAL: 5999655 11.9993%
BRANCH_DIRECT_CALL: 1086739 2.17348%
BRANCH_INDIRECT_CALL: 206109 0.412218%
BRANCH_RETURN: 1292836 2.58567%
BRANCH_OTHER: 0 0%

