Initialize SIGNATURE TABLE
ST_SET: 1
ST_WAY: 256
ST_TAG_BIT: 16
ST_TAG_MASK: ffff

Initialize PATTERN TABLE
PT_SET: 512
PT_WAY: 4
SIG_DELTA_BIT: 7
C_SIG_BIT: 4
C_DELTA_BIT: 4

Initialize PREFETCH FILTER
FILTER_SET: 1024
MANA initialize 
tds: 2 tdm: 4
size MANA SINGLE: 74 KB
size MANA NULTIPLE: 43 KB
size HOBPT: 5 KB
size SRQ: 0.14502 KB
size SABs: 0.290039 KB
size prefetch queue: 0.453125 KB
total: 122.888 KB

*** ChampSim Multicore Out-of-Order Simulator ***

Warmup Instructions: 50000000
Simulation Instructions: 50000000
Number of CPUs: 1
LLC sets: 2048
LLC ways: 16
Off-chip DRAM Size: 4096 MB Channels: 1 Width: 64-bit Data Rate: 3200 MT/s

CPU 0 runs /home/mbaradaran/ChampSim/dpc3_traces/server_013.champsimtrace.xz
CPU 0 L1D next line prefetcher
Heartbeat CPU 0 instructions: 10000000 cycles: 3216218 heartbeat IPC: 3.10924 cumulative IPC: 3.10924 (Simulation time: 0 hr 1 min 17 sec) 
Heartbeat CPU 0 instructions: 20000001 cycles: 6421799 heartbeat IPC: 3.11956 cumulative IPC: 3.11439 (Simulation time: 0 hr 2 min 33 sec) 
Heartbeat CPU 0 instructions: 30000002 cycles: 9631356 heartbeat IPC: 3.11569 cumulative IPC: 3.11483 (Simulation time: 0 hr 3 min 51 sec) 
Heartbeat CPU 0 instructions: 40000002 cycles: 12836376 heartbeat IPC: 3.12011 cumulative IPC: 3.11614 (Simulation time: 0 hr 5 min 11 sec) 
Heartbeat CPU 0 instructions: 50000000 cycles: 16041098 heartbeat IPC: 3.12039 cumulative IPC: 3.11699 (Simulation time: 0 hr 6 min 30 sec) 

Warmup complete CPU 0 instructions: 50000004 cycles: 16041099 (Simulation time: 0 hr 6 min 30 sec) 

Heartbeat CPU 0 instructions: 60000000 cycles: 23746145 heartbeat IPC: 1.29785 cumulative IPC: 1.29785 (Simulation time: 0 hr 7 min 45 sec) 
Heartbeat CPU 0 instructions: 70000003 cycles: 31672485 heartbeat IPC: 1.26162 cumulative IPC: 1.27948 (Simulation time: 0 hr 9 min 2 sec) 
Heartbeat CPU 0 instructions: 80000003 cycles: 39072745 heartbeat IPC: 1.3513 cumulative IPC: 1.30256 (Simulation time: 0 hr 10 min 17 sec) 
Heartbeat CPU 0 instructions: 90000003 cycles: 46635497 heartbeat IPC: 1.32227 cumulative IPC: 1.30743 (Simulation time: 0 hr 11 min 38 sec) 
Heartbeat CPU 0 instructions: 100000000 cycles: 54209770 heartbeat IPC: 1.32026 cumulative IPC: 1.30997 (Simulation time: 0 hr 12 min 53 sec) 
Finished CPU 0 instructions: 50000000 cycles: 38168672 cumulative IPC: 1.30997 (Simulation time: 0 hr 12 min 53 sec) 

ChampSim completed all CPUs

Region of Interest Statistics

CPU 0 cumulative IPC: 1.30997 instructions: 50000000 cycles: 38168672

SHEET
IPC : 1.30997

L1D TOTAL     ACCESS:   17427015  HIT:   16360317  MISS:    1066698
L1D LOAD      ACCESS:    6366729  HIT:    5866388  MISS:     500341
L1D RFO       ACCESS:    4932815  HIT:    4852482  MISS:      80333
L1D PREFETCH  ACCESS:    6127471  HIT:    5641447  MISS:     486024
L1D WRITEBACK ACCESS:          0  HIT:          0  MISS:          0
L1D PREFETCH  REQUESTED:    6402055  ISSUED:    6307794  USEFUL:     134287  USELESS:     351744
L1D AVERAGE MISS LATENCY: 42.7741 cycles
L1D

SHEET
L1D-total_access : 17427015
L1D-total_hit : 16360317
L1D-total_miss : 1066698
L1D-load_access : 6366729
L1D-load_hit : 5866388
L1D-load_miss : 500341
L1D-rfo_access : 4932815
L1D-rfo_hit : 4852482
L1D-rfo_miss : 80333
L1D-prefetch_access : 6127471
L1D-prefetch_hit : 5641447
L1D-prefetch_miss : 486024
L1D-writeback_access : 0
L1D-writeback_hit : 0
L1D-writeback_miss : 0
L1D-prefetch_requested : 6402055
L1D-prefetch_issued : 6307794
L1D-prefetch_useful : 134287
L1D-prefetch_useless : 351744
L1D-Avg_miss_latency : 42.7741
L1D-Morteza_fill_l2_prefetches : 0

L1I TOTAL     ACCESS:   15429280  HIT:   12973506  MISS:    2455774
L1I LOAD      ACCESS:    8672242  HIT:    8346202  MISS:     326040
L1I RFO       ACCESS:          0  HIT:          0  MISS:          0
L1I PREFETCH  ACCESS:    6757038  HIT:    4627304  MISS:    2129734
L1I WRITEBACK ACCESS:          0  HIT:          0  MISS:          0
L1I PREFETCH  REQUESTED:    7612584  ISSUED:    7147153  USEFUL:    1280942  USELESS:     848826
L1I AVERAGE MISS LATENCY: 28.2554 cycles
L1I

SHEET
L1I-total_access : 15429280
L1I-total_hit : 12973506
L1I-total_miss : 2455774
L1I-load_access : 8672242
L1I-load_hit : 8346202
L1I-load_miss : 326040
L1I-rfo_access : 0
L1I-rfo_hit : 0
L1I-rfo_miss : 0
L1I-prefetch_access : 6757038
L1I-prefetch_hit : 4627304
L1I-prefetch_miss : 2129734
L1I-writeback_access : 0
L1I-writeback_hit : 0
L1I-writeback_miss : 0
L1I-prefetch_requested : 7612584
L1I-prefetch_issued : 7147153
L1I-prefetch_useful : 1280942
L1I-prefetch_useless : 848826
L1I-Avg_miss_latency : 28.2554
L1I-Morteza_fill_l2_prefetches : 0

L2C TOTAL     ACCESS:    4487803  HIT:    3095396  MISS:    1392407
L2C LOAD      ACCESS:     690824  HIT:     367324  MISS:     323500
L2C RFO       ACCESS:      78933  HIT:      29673  MISS:      49260
L2C PREFETCH  ACCESS:    3442239  HIT:    2425141  MISS:    1017098
L2C WRITEBACK ACCESS:     275807  HIT:     273258  MISS:       2549
L2C PREFETCH  REQUESTED:    4193129  ISSUED:    4188237  USEFUL:      60844  USELESS:     955909
L2C AVERAGE MISS LATENCY: 47.4946 cycles
L2C

SHEET
L2C-total_access : 4487803
L2C-total_hit : 3095396
L2C-total_miss : 1392407
L2C-load_access : 690824
L2C-load_hit : 367324
L2C-load_miss : 323500
L2C-rfo_access : 78933
L2C-rfo_hit : 29673
L2C-rfo_miss : 49260
L2C-prefetch_access : 3442239
L2C-prefetch_hit : 2425141
L2C-prefetch_miss : 1017098
L2C-writeback_access : 275807
L2C-writeback_hit : 273258
L2C-writeback_miss : 2549
L2C-prefetch_requested : 4193129
L2C-prefetch_issued : 4188237
L2C-prefetch_useful : 60844
L2C-prefetch_useless : 955909
L2C-Avg_miss_latency : 47.4946
L2C-Morteza_fill_l2_prefetches : 702053

LLC TOTAL     ACCESS:    2667438  HIT:    2495863  MISS:     171575
LLC LOAD      ACCESS:     323235  HIT:     297591  MISS:      25644
LLC RFO       ACCESS:      49245  HIT:      38992  MISS:      10253
LLC PREFETCH  ACCESS:    2121080  HIT:    1985639  MISS:     135441
LLC WRITEBACK ACCESS:     173878  HIT:     173641  MISS:        237
LLC PREFETCH  REQUESTED:          0  ISSUED:          0  USEFUL:      13179  USELESS:     120292
LLC AVERAGE MISS LATENCY: 173.307 cycles
LLC

SHEET
LLC-total_access : 2667438
LLC-total_hit : 2495863
LLC-total_miss : 171575
LLC-load_access : 323235
LLC-load_hit : 297591
LLC-load_miss : 25644
LLC-rfo_access : 49245
LLC-rfo_hit : 38992
LLC-rfo_miss : 10253
LLC-prefetch_access : 2121080
LLC-prefetch_hit : 1985639
LLC-prefetch_miss : 135441
LLC-writeback_access : 173878
LLC-writeback_hit : 173641
LLC-writeback_miss : 237
LLC-prefetch_requested : 0
LLC-prefetch_issued : 0
LLC-prefetch_useful : 13179
LLC-prefetch_useless : 120292
LLC-Avg_miss_latency : 173.307
LLC-Morteza_fill_l2_prefetches : 1112708

Major fault: 0 Minor fault: 6264



Printing Logs
statHeadFound: 413385
statHeadMissing: 374164
statStreamBufferHit: 11282691
statPrefetchEntryFound: 3916520
statCompactorMatch: 10209450
statStreamTrackerLookup: 12070240
statRecord: 1860790
statGetPointer: 787549
statEnqueuePrefetch: 14181458
statPrefetchQueueIsFull: 31607
StreamBufferHitRate: 0.934753
Regions' size: 4007
next_region_correct: 1519179
next_region_wrong: 337586
next_region_correct_prediction: 0.818186
statStreamBufferLookups: 869057280
statL1iLookups: 113451664
statCompactorLookups: 434528640
morteza: start

SHEET
mana_table_access_counter : 2953650
mana_table_multiple_access_counter : 3274034
hobp_table_access_counter : 17700638
sab_access_counter : 15199211
srq_access_counter : 12580388

morteza: end
CPU 0 L1D next line prefetcher final stats

DRAM Statistics
 CHANNEL 0
 RQ ROW_BUFFER_HIT:      29440  ROW_BUFFER_MISS:     141879
 DBUS_CONGESTED:      78262
 WQ ROW_BUFFER_HIT:      12117  ROW_BUFFER_MISS:      52762  FULL:          0

 AVG_CONGESTED_CYCLE: 5

CPU 0 Branch Prediction Accuracy: 99.4114% MPKI: 1.0933 Average ROB Occupancy at Mispredict: 111.181

Branch types
NOT_BRANCH: 40713302 81.4266%
BRANCH_DIRECT_JUMP: 463701 0.927402%
BRANCH_INDIRECT: 146544 0.293088%
BRANCH_CONDITIONAL: 6981961 13.9639%
BRANCH_DIRECT_CALL: 665005 1.33001%
BRANCH_INDIRECT_CALL: 165152 0.330304%
BRANCH_RETURN: 864315 1.72863%
BRANCH_OTHER: 0 0%

