Initialize SIGNATURE TABLE
ST_SET: 1
ST_WAY: 256
ST_TAG_BIT: 16
ST_TAG_MASK: ffff

Initialize PATTERN TABLE
PT_SET: 512
PT_WAY: 4
SIG_DELTA_BIT: 7
C_SIG_BIT: 4
C_DELTA_BIT: 4

Initialize PREFETCH FILTER
FILTER_SET: 1024
MANA initialize 
tds: 2 tdm: 4
size MANA SINGLE: 74 KB
size MANA NULTIPLE: 43 KB
size HOBPT: 5 KB
size SRQ: 0.14502 KB
size SABs: 0.290039 KB
size prefetch queue: 0.453125 KB
total: 122.888 KB

*** ChampSim Multicore Out-of-Order Simulator ***

Warmup Instructions: 50000000
Simulation Instructions: 50000000
Number of CPUs: 1
LLC sets: 2048
LLC ways: 16
Off-chip DRAM Size: 4096 MB Channels: 1 Width: 64-bit Data Rate: 3200 MT/s

CPU 0 runs /home/mbaradaran/ChampSim/dpc3_traces/server_014.champsimtrace.xz
CPU 0 L1D next line prefetcher
Heartbeat CPU 0 instructions: 10000003 cycles: 3519579 heartbeat IPC: 2.84125 cumulative IPC: 2.84125 (Simulation time: 0 hr 1 min 26 sec) 
Heartbeat CPU 0 instructions: 20000000 cycles: 7106736 heartbeat IPC: 2.78772 cumulative IPC: 2.81423 (Simulation time: 0 hr 2 min 47 sec) 
Heartbeat CPU 0 instructions: 30000001 cycles: 10648236 heartbeat IPC: 2.82366 cumulative IPC: 2.81737 (Simulation time: 0 hr 4 min 9 sec) 
Heartbeat CPU 0 instructions: 40000003 cycles: 14196459 heartbeat IPC: 2.81831 cumulative IPC: 2.8176 (Simulation time: 0 hr 5 min 32 sec) 
Heartbeat CPU 0 instructions: 50000000 cycles: 17745135 heartbeat IPC: 2.81795 cumulative IPC: 2.81767 (Simulation time: 0 hr 6 min 58 sec) 

Warmup complete CPU 0 instructions: 50000001 cycles: 17745136 (Simulation time: 0 hr 6 min 58 sec) 

Heartbeat CPU 0 instructions: 60000000 cycles: 24038136 heartbeat IPC: 1.58907 cumulative IPC: 1.58907 (Simulation time: 0 hr 8 min 26 sec) 
Heartbeat CPU 0 instructions: 70000003 cycles: 30333477 heartbeat IPC: 1.58848 cumulative IPC: 1.58877 (Simulation time: 0 hr 9 min 53 sec) 
*** Reached end of trace for Core: 0 Repeating trace: /home/mbaradaran/ChampSim/dpc3_traces/server_014.champsimtrace.xz
Heartbeat CPU 0 instructions: 80000001 cycles: 36978131 heartbeat IPC: 1.50497 cumulative IPC: 1.55982 (Simulation time: 0 hr 11 min 14 sec) 
Heartbeat CPU 0 instructions: 90000003 cycles: 44518650 heartbeat IPC: 1.32617 cumulative IPC: 1.49401 (Simulation time: 0 hr 12 min 38 sec) 
Heartbeat CPU 0 instructions: 100000001 cycles: 51038226 heartbeat IPC: 1.53384 cumulative IPC: 1.50181 (Simulation time: 0 hr 14 min 8 sec) 
Finished CPU 0 instructions: 50000000 cycles: 33293090 cumulative IPC: 1.50181 (Simulation time: 0 hr 14 min 8 sec) 

ChampSim completed all CPUs

Region of Interest Statistics

CPU 0 cumulative IPC: 1.50181 instructions: 50000000 cycles: 33293090

SHEET
IPC : 1.50181

L1D TOTAL     ACCESS:   21662601  HIT:   21591734  MISS:      70867
L1D LOAD      ACCESS:    6690670  HIT:    6663742  MISS:      26928
L1D RFO       ACCESS:    8413699  HIT:    8381626  MISS:      32073
L1D PREFETCH  ACCESS:    6558232  HIT:    6546366  MISS:      11866
L1D WRITEBACK ACCESS:          0  HIT:          0  MISS:          0
L1D PREFETCH  REQUESTED:    6695063  ISSUED:    6585897  USEFUL:       3310  USELESS:       8556
L1D AVERAGE MISS LATENCY: 231.544 cycles
L1D

SHEET
L1D-total_access : 21662601
L1D-total_hit : 21591734
L1D-total_miss : 70867
L1D-load_access : 6690670
L1D-load_hit : 6663742
L1D-load_miss : 26928
L1D-rfo_access : 8413699
L1D-rfo_hit : 8381626
L1D-rfo_miss : 32073
L1D-prefetch_access : 6558232
L1D-prefetch_hit : 6546366
L1D-prefetch_miss : 11866
L1D-writeback_access : 0
L1D-writeback_hit : 0
L1D-writeback_miss : 0
L1D-prefetch_requested : 6695063
L1D-prefetch_issued : 6585897
L1D-prefetch_useful : 3310
L1D-prefetch_useless : 8556
L1D-Avg_miss_latency : 231.544
L1D-Morteza_fill_l2_prefetches : 0

L1I TOTAL     ACCESS:   18739791  HIT:   16189855  MISS:    2549936
L1I LOAD      ACCESS:    9660340  HIT:    9441590  MISS:     218750
L1I RFO       ACCESS:          0  HIT:          0  MISS:          0
L1I PREFETCH  ACCESS:    9079451  HIT:    6748265  MISS:    2331186
L1I WRITEBACK ACCESS:          0  HIT:          0  MISS:          0
L1I PREFETCH  REQUESTED:    9607844  ISSUED:    9525859  USEFUL:    2050104  USELESS:     281086
L1I AVERAGE MISS LATENCY: 14.7342 cycles
L1I

SHEET
L1I-total_access : 18739791
L1I-total_hit : 16189855
L1I-total_miss : 2549936
L1I-load_access : 9660340
L1I-load_hit : 9441590
L1I-load_miss : 218750
L1I-rfo_access : 0
L1I-rfo_hit : 0
L1I-rfo_miss : 0
L1I-prefetch_access : 9079451
L1I-prefetch_hit : 6748265
L1I-prefetch_miss : 2331186
L1I-writeback_access : 0
L1I-writeback_hit : 0
L1I-writeback_miss : 0
L1I-prefetch_requested : 9607844
L1I-prefetch_issued : 9525859
L1I-prefetch_useful : 2050104
L1I-prefetch_useless : 281086
L1I-Avg_miss_latency : 14.7342
L1I-Morteza_fill_l2_prefetches : 0

L2C TOTAL     ACCESS:    3658067  HIT:    3585519  MISS:      72548
L2C LOAD      ACCESS:     161905  HIT:     142323  MISS:      19582
L2C RFO       ACCESS:      32020  HIT:       1038  MISS:      30982
L2C PREFETCH  ACCESS:    3425773  HIT:    3403808  MISS:      21965
L2C WRITEBACK ACCESS:      38369  HIT:      38350  MISS:         19
L2C PREFETCH  REQUESTED:    2870529  ISSUED:    2869558  USEFUL:       1951  USELESS:      19987
L2C AVERAGE MISS LATENCY: 259.669 cycles
L2C

SHEET
L2C-total_access : 3658067
L2C-total_hit : 3585519
L2C-total_miss : 72548
L2C-load_access : 161905
L2C-load_hit : 142323
L2C-load_miss : 19582
L2C-rfo_access : 32020
L2C-rfo_hit : 1038
L2C-rfo_miss : 30982
L2C-prefetch_access : 3425773
L2C-prefetch_hit : 3403808
L2C-prefetch_miss : 21965
L2C-writeback_access : 38369
L2C-writeback_hit : 38350
L2C-writeback_miss : 19
L2C-prefetch_requested : 2870529
L2C-prefetch_issued : 2869558
L2C-prefetch_useful : 1951
L2C-prefetch_useless : 19987
L2C-Avg_miss_latency : 259.669
L2C-Morteza_fill_l2_prefetches : 1019105

LLC TOTAL     ACCESS:     711105  HIT:     643729  MISS:      67376
LLC LOAD      ACCESS:      18407  HIT:       5511  MISS:      12896
LLC RFO       ACCESS:      30982  HIT:       4514  MISS:      26468
LLC PREFETCH  ACCESS:     626823  HIT:     598933  MISS:      27890
LLC WRITEBACK ACCESS:      34893  HIT:      34771  MISS:        122
LLC PREFETCH  REQUESTED:          0  ISSUED:          0  USEFUL:       4375  USELESS:      23418
LLC AVERAGE MISS LATENCY: 322.659 cycles
LLC

SHEET
LLC-total_access : 711105
LLC-total_hit : 643729
LLC-total_miss : 67376
LLC-load_access : 18407
LLC-load_hit : 5511
LLC-load_miss : 12896
LLC-rfo_access : 30982
LLC-rfo_hit : 4514
LLC-rfo_miss : 26468
LLC-prefetch_access : 626823
LLC-prefetch_hit : 598933
LLC-prefetch_miss : 27890
LLC-writeback_access : 34893
LLC-writeback_hit : 34771
LLC-writeback_miss : 122
LLC-prefetch_requested : 0
LLC-prefetch_issued : 0
LLC-prefetch_useful : 4375
LLC-prefetch_useless : 23418
LLC-Avg_miss_latency : 322.659
LLC-Morteza_fill_l2_prefetches : 591043

Major fault: 0 Minor fault: 1974



Printing Logs
statHeadFound: 575401
statHeadMissing: 472768
statStreamBufferHit: 13578847
statPrefetchEntryFound: 6205221
statCompactorMatch: 11448475
statStreamTrackerLookup: 14627016
statRecord: 3178541
statGetPointer: 1048169
statEnqueuePrefetch: 18767490
statPrefetchQueueIsFull: 62
StreamBufferHitRate: 0.92834
Regions' size: 2684
next_region_correct: 2303205
next_region_wrong: 872634
next_region_correct_prediction: 0.725227
statStreamBufferLookups: 1053145152
statL1iLookups: 150139920
statCompactorLookups: 526572576
morteza: start

SHEET
mana_table_access_counter : 5278263
mana_table_multiple_access_counter : 4684079
hobp_table_access_counter : 27309966
sab_access_counter : 19784068
srq_access_counter : 16979732

morteza: end
CPU 0 L1D next line prefetcher final stats

DRAM Statistics
 CHANNEL 0
 RQ ROW_BUFFER_HIT:      29607  ROW_BUFFER_MISS:      37640
 DBUS_CONGESTED:      67283
 WQ ROW_BUFFER_HIT:       8158  ROW_BUFFER_MISS:      24489  FULL:          0

 AVG_CONGESTED_CYCLE: 6

CPU 0 Branch Prediction Accuracy: 99.7719% MPKI: 0.38824 Average ROB Occupancy at Mispredict: 144.676

Branch types
NOT_BRANCH: 41488999 82.978%
BRANCH_DIRECT_JUMP: 449417 0.898834%
BRANCH_INDIRECT: 2330 0.00466%
BRANCH_CONDITIONAL: 5470015 10.94%
BRANCH_DIRECT_CALL: 1172187 2.34437%
BRANCH_INDIRECT_CALL: 122383 0.244766%
BRANCH_RETURN: 1294554 2.58911%
BRANCH_OTHER: 0 0%

