Initialize SIGNATURE TABLE
ST_SET: 1
ST_WAY: 256
ST_TAG_BIT: 16
ST_TAG_MASK: ffff

Initialize PATTERN TABLE
PT_SET: 512
PT_WAY: 4
SIG_DELTA_BIT: 7
C_SIG_BIT: 4
C_DELTA_BIT: 4

Initialize PREFETCH FILTER
FILTER_SET: 1024
MANA initialize 
tds: 2 tdm: 4
size MANA SINGLE: 74 KB
size MANA NULTIPLE: 43 KB
size HOBPT: 5 KB
size SRQ: 0.14502 KB
size SABs: 0.290039 KB
size prefetch queue: 0.453125 KB
total: 122.888 KB

*** ChampSim Multicore Out-of-Order Simulator ***

Warmup Instructions: 50000000
Simulation Instructions: 50000000
Number of CPUs: 1
LLC sets: 2048
LLC ways: 16
Off-chip DRAM Size: 4096 MB Channels: 1 Width: 64-bit Data Rate: 3200 MT/s

CPU 0 runs /home/mbaradaran/ChampSim/dpc3_traces/server_002.champsimtrace.xz
CPU 0 L1D next line prefetcher
Heartbeat CPU 0 instructions: 10000000 cycles: 3581191 heartbeat IPC: 2.79237 cumulative IPC: 2.79237 (Simulation time: 0 hr 1 min 25 sec) 
Heartbeat CPU 0 instructions: 20000002 cycles: 7170290 heartbeat IPC: 2.78622 cumulative IPC: 2.78929 (Simulation time: 0 hr 2 min 49 sec) 
Heartbeat CPU 0 instructions: 30000000 cycles: 10711014 heartbeat IPC: 2.82428 cumulative IPC: 2.80086 (Simulation time: 0 hr 4 min 7 sec) 
Heartbeat CPU 0 instructions: 40000000 cycles: 14261259 heartbeat IPC: 2.81671 cumulative IPC: 2.8048 (Simulation time: 0 hr 5 min 30 sec) 
Heartbeat CPU 0 instructions: 50000001 cycles: 17809030 heartbeat IPC: 2.81867 cumulative IPC: 2.80756 (Simulation time: 0 hr 6 min 49 sec) 

Warmup complete CPU 0 instructions: 50000001 cycles: 17809030 (Simulation time: 0 hr 6 min 49 sec) 

Heartbeat CPU 0 instructions: 60000000 cycles: 24255068 heartbeat IPC: 1.55134 cumulative IPC: 1.55134 (Simulation time: 0 hr 8 min 17 sec) 
Heartbeat CPU 0 instructions: 70000003 cycles: 30694208 heartbeat IPC: 1.553 cumulative IPC: 1.55217 (Simulation time: 0 hr 9 min 37 sec) 
Heartbeat CPU 0 instructions: 80000003 cycles: 37134860 heartbeat IPC: 1.55264 cumulative IPC: 1.55233 (Simulation time: 0 hr 11 min 2 sec) 
Heartbeat CPU 0 instructions: 90000002 cycles: 43574689 heartbeat IPC: 1.55284 cumulative IPC: 1.55245 (Simulation time: 0 hr 12 min 21 sec) 
Heartbeat CPU 0 instructions: 100000003 cycles: 50013673 heartbeat IPC: 1.55304 cumulative IPC: 1.55257 (Simulation time: 0 hr 13 min 47 sec) 
Finished CPU 0 instructions: 50000002 cycles: 32204643 cumulative IPC: 1.55257 (Simulation time: 0 hr 13 min 47 sec) 

ChampSim completed all CPUs

Region of Interest Statistics

CPU 0 cumulative IPC: 1.55257 instructions: 50000002 cycles: 32204643

SHEET
IPC : 1.55257

L1D TOTAL     ACCESS:   21537587  HIT:   21536778  MISS:        809
L1D LOAD      ACCESS:    6608243  HIT:    6607866  MISS:        377
L1D RFO       ACCESS:    8433114  HIT:    8433002  MISS:        112
L1D PREFETCH  ACCESS:    6496230  HIT:    6495910  MISS:        320
L1D WRITEBACK ACCESS:          0  HIT:          0  MISS:          0
L1D PREFETCH  REQUESTED:    6608294  ISSUED:    6503951  USEFUL:         90  USELESS:        231
L1D AVERAGE MISS LATENCY: 40.7763 cycles
L1D

SHEET
L1D-total_access : 21537587
L1D-total_hit : 21536778
L1D-total_miss : 809
L1D-load_access : 6608243
L1D-load_hit : 6607866
L1D-load_miss : 377
L1D-rfo_access : 8433114
L1D-rfo_hit : 8433002
L1D-rfo_miss : 112
L1D-prefetch_access : 6496230
L1D-prefetch_hit : 6495910
L1D-prefetch_miss : 320
L1D-writeback_access : 0
L1D-writeback_hit : 0
L1D-writeback_miss : 0
L1D-prefetch_requested : 6608294
L1D-prefetch_issued : 6503951
L1D-prefetch_useful : 90
L1D-prefetch_useless : 231
L1D-Avg_miss_latency : 40.7763
L1D-Morteza_fill_l2_prefetches : 0

L1I TOTAL     ACCESS:   18658922  HIT:   16403258  MISS:    2255664
L1I LOAD      ACCESS:    9733861  HIT:    9511999  MISS:     221862
L1I RFO       ACCESS:          0  HIT:          0  MISS:          0
L1I PREFETCH  ACCESS:    8925061  HIT:    6891259  MISS:    2033802
L1I WRITEBACK ACCESS:          0  HIT:          0  MISS:          0
L1I PREFETCH  REQUESTED:    9248501  ISSUED:    9201757  USEFUL:    1795349  USELESS:     238444
L1I AVERAGE MISS LATENCY: 13.7695 cycles
L1I

SHEET
L1I-total_access : 18658922
L1I-total_hit : 16403258
L1I-total_miss : 2255664
L1I-load_access : 9733861
L1I-load_hit : 9511999
L1I-load_miss : 221862
L1I-rfo_access : 0
L1I-rfo_hit : 0
L1I-rfo_miss : 0
L1I-prefetch_access : 8925061
L1I-prefetch_hit : 6891259
L1I-prefetch_miss : 2033802
L1I-writeback_access : 0
L1I-writeback_hit : 0
L1I-writeback_miss : 0
L1I-prefetch_requested : 9248501
L1I-prefetch_issued : 9201757
L1I-prefetch_useful : 1795349
L1I-prefetch_useless : 238444
L1I-Avg_miss_latency : 13.7695
L1I-Morteza_fill_l2_prefetches : 0

L2C TOTAL     ACCESS:    2965375  HIT:    2965020  MISS:        355
L2C LOAD      ACCESS:     121398  HIT:     121323  MISS:         75
L2C RFO       ACCESS:        112  HIT:        108  MISS:          4
L2C PREFETCH  ACCESS:    2843529  HIT:    2843253  MISS:        276
L2C WRITEBACK ACCESS:        336  HIT:        336  MISS:          0
L2C PREFETCH  REQUESTED:    1960970  ISSUED:    1960891  USEFUL:         84  USELESS:        113
L2C AVERAGE MISS LATENCY: 156.69 cycles
L2C

SHEET
L2C-total_access : 2965375
L2C-total_hit : 2965020
L2C-total_miss : 355
L2C-load_access : 121398
L2C-load_hit : 121323
L2C-load_miss : 75
L2C-rfo_access : 112
L2C-rfo_hit : 108
L2C-rfo_miss : 4
L2C-prefetch_access : 2843529
L2C-prefetch_hit : 2843253
L2C-prefetch_miss : 276
L2C-writeback_access : 336
L2C-writeback_hit : 336
L2C-writeback_miss : 0
L2C-prefetch_requested : 1960970
L2C-prefetch_issued : 1960891
L2C-prefetch_useful : 84
L2C-prefetch_useless : 113
L2C-Avg_miss_latency : 156.69
L2C-Morteza_fill_l2_prefetches : 718633

LLC TOTAL     ACCESS:     261955  HIT:     261180  MISS:        775
LLC LOAD      ACCESS:         75  HIT:         62  MISS:         13
LLC RFO       ACCESS:          4  HIT:          2  MISS:          2
LLC PREFETCH  ACCESS:     261728  HIT:     260970  MISS:        758
LLC WRITEBACK ACCESS:        148  HIT:        146  MISS:          2
LLC PREFETCH  REQUESTED:          0  ISSUED:          0  USEFUL:         10  USELESS:        236
LLC AVERAGE MISS LATENCY: 433.792 cycles
LLC

SHEET
LLC-total_access : 261955
LLC-total_hit : 261180
LLC-total_miss : 775
LLC-load_access : 75
LLC-load_hit : 62
LLC-load_miss : 13
LLC-rfo_access : 4
LLC-rfo_hit : 2
LLC-rfo_miss : 2
LLC-prefetch_access : 261728
LLC-prefetch_hit : 260970
LLC-prefetch_miss : 758
LLC-writeback_access : 148
LLC-writeback_hit : 146
LLC-writeback_miss : 2
LLC-prefetch_requested : 0
LLC-prefetch_issued : 0
LLC-prefetch_useful : 10
LLC-prefetch_useless : 236
LLC-Avg_miss_latency : 433.792
LLC-Morteza_fill_l2_prefetches : 260870

Major fault: 0 Minor fault: 1930



Printing Logs
statHeadFound: 567212
statHeadMissing: 317451
statStreamBufferHit: 13918685
statPrefetchEntryFound: 6199855
statCompactorMatch: 11527316
statStreamTrackerLookup: 14803348
statRecord: 3276032
statGetPointer: 884663
statEnqueuePrefetch: 18248471
statPrefetchQueueIsFull: 34
StreamBufferHitRate: 0.940239
Regions' size: 2466
next_region_correct: 2303527
next_region_wrong: 970021
next_region_correct_prediction: 0.703679
statStreamBufferLookups: 1065841056
statL1iLookups: 145987768
statCompactorLookups: 532920528
morteza: start

SHEET
mana_table_access_counter : 5396130
mana_table_multiple_access_counter : 4649523
hobp_table_access_counter : 26385493
sab_access_counter : 20118540
srq_access_counter : 17144894

morteza: end
CPU 0 L1D next line prefetcher final stats

DRAM Statistics
 CHANNEL 0
 RQ ROW_BUFFER_HIT:        139  ROW_BUFFER_MISS:        634
 DBUS_CONGESTED:        530
 WQ ROW_BUFFER_HIT:         89  ROW_BUFFER_MISS:        369  FULL:          0

 AVG_CONGESTED_CYCLE: 6

CPU 0 Branch Prediction Accuracy: 99.8789% MPKI: 0.20388 Average ROB Occupancy at Mispredict: 260.302

Branch types
NOT_BRANCH: 41580695 83.1614%
BRANCH_DIRECT_JUMP: 461630 0.92326%
BRANCH_INDIRECT: 0 0%
BRANCH_CONDITIONAL: 5376437 10.7529%
BRANCH_DIRECT_CALL: 1175775 2.35155%
BRANCH_INDIRECT_CALL: 114840 0.22968%
BRANCH_RETURN: 1290625 2.58125%
BRANCH_OTHER: 0 0%

