Initialize SIGNATURE TABLE
ST_SET: 1
ST_WAY: 256
ST_TAG_BIT: 16
ST_TAG_MASK: ffff

Initialize PATTERN TABLE
PT_SET: 512
PT_WAY: 4
SIG_DELTA_BIT: 7
C_SIG_BIT: 4
C_DELTA_BIT: 4

Initialize PREFETCH FILTER
FILTER_SET: 1024
MANA initialize 
tds: 2 tdm: 4
size MANA SINGLE: 74 KB
size MANA NULTIPLE: 43 KB
size HOBPT: 5 KB
size SRQ: 0.14502 KB
size SABs: 0.290039 KB
size prefetch queue: 0.453125 KB
total: 122.888 KB

*** ChampSim Multicore Out-of-Order Simulator ***

Warmup Instructions: 50000000
Simulation Instructions: 50000000
Number of CPUs: 1
LLC sets: 2048
LLC ways: 16
Off-chip DRAM Size: 4096 MB Channels: 1 Width: 64-bit Data Rate: 3200 MT/s

CPU 0 runs /home/mbaradaran/ChampSim/dpc3_traces/server_009.champsimtrace.xz
CPU 0 L1D next line prefetcher
Heartbeat CPU 0 instructions: 10000003 cycles: 3200948 heartbeat IPC: 3.12408 cumulative IPC: 3.12408 (Simulation time: 0 hr 1 min 20 sec) 
Heartbeat CPU 0 instructions: 20000001 cycles: 6394788 heartbeat IPC: 3.13103 cumulative IPC: 3.12755 (Simulation time: 0 hr 2 min 43 sec) 
Heartbeat CPU 0 instructions: 30000002 cycles: 9603537 heartbeat IPC: 3.11648 cumulative IPC: 3.12385 (Simulation time: 0 hr 4 min 10 sec) 
Heartbeat CPU 0 instructions: 40000003 cycles: 12808787 heartbeat IPC: 3.11988 cumulative IPC: 3.12286 (Simulation time: 0 hr 5 min 40 sec) 
Heartbeat CPU 0 instructions: 50000000 cycles: 16070377 heartbeat IPC: 3.06599 cumulative IPC: 3.11131 (Simulation time: 0 hr 7 min 2 sec) 

Warmup complete CPU 0 instructions: 50000004 cycles: 16070378 (Simulation time: 0 hr 7 min 2 sec) 

Heartbeat CPU 0 instructions: 60000002 cycles: 31823964 heartbeat IPC: 0.634776 cumulative IPC: 0.634776 (Simulation time: 0 hr 8 min 45 sec) 
Heartbeat CPU 0 instructions: 70000003 cycles: 52872809 heartbeat IPC: 0.475085 cumulative IPC: 0.543442 (Simulation time: 0 hr 10 min 52 sec) 
Heartbeat CPU 0 instructions: 80000000 cycles: 60178371 heartbeat IPC: 1.36882 cumulative IPC: 0.680149 (Simulation time: 0 hr 12 min 5 sec) 
Heartbeat CPU 0 instructions: 90000001 cycles: 67608278 heartbeat IPC: 1.34591 cumulative IPC: 0.776128 (Simulation time: 0 hr 13 min 13 sec) 
Heartbeat CPU 0 instructions: 100000001 cycles: 74927475 heartbeat IPC: 1.36627 cumulative IPC: 0.849515 (Simulation time: 0 hr 14 min 22 sec) 
Finished CPU 0 instructions: 50000000 cycles: 58857098 cumulative IPC: 0.849515 (Simulation time: 0 hr 14 min 22 sec) 

ChampSim completed all CPUs

Region of Interest Statistics

CPU 0 cumulative IPC: 0.849515 instructions: 50000000 cycles: 58857098

SHEET
IPC : 0.849515

L1D TOTAL     ACCESS:   21718089  HIT:   17138289  MISS:    4579800
L1D LOAD      ACCESS:    8673212  HIT:    6393363  MISS:    2279849
L1D RFO       ACCESS:    4584705  HIT:    4480068  MISS:     104637
L1D PREFETCH  ACCESS:    8460172  HIT:    6264858  MISS:    2195314
L1D WRITEBACK ACCESS:          0  HIT:          0  MISS:          0
L1D PREFETCH  REQUESTED:    8706804  ISSUED:    8609589  USEFUL:     106687  USELESS:    2088626
L1D AVERAGE MISS LATENCY: 20.3736 cycles
L1D

SHEET
L1D-total_access : 21718089
L1D-total_hit : 17138289
L1D-total_miss : 4579800
L1D-load_access : 8673212
L1D-load_hit : 6393363
L1D-load_miss : 2279849
L1D-rfo_access : 4584705
L1D-rfo_hit : 4480068
L1D-rfo_miss : 104637
L1D-prefetch_access : 8460172
L1D-prefetch_hit : 6264858
L1D-prefetch_miss : 2195314
L1D-writeback_access : 0
L1D-writeback_hit : 0
L1D-writeback_miss : 0
L1D-prefetch_requested : 8706804
L1D-prefetch_issued : 8609589
L1D-prefetch_useful : 106687
L1D-prefetch_useless : 2088626
L1D-Avg_miss_latency : 20.3736
L1D-Morteza_fill_l2_prefetches : 0

L1I TOTAL     ACCESS:   17250272  HIT:   15291045  MISS:    1959227
L1I LOAD      ACCESS:   10725151  HIT:   10434801  MISS:     290350
L1I RFO       ACCESS:          0  HIT:          0  MISS:          0
L1I PREFETCH  ACCESS:    6525121  HIT:    4856244  MISS:    1668877
L1I WRITEBACK ACCESS:          0  HIT:          0  MISS:          0
L1I PREFETCH  REQUESTED:    7215471  ISSUED:    6827774  USEFUL:     983101  USELESS:     685725
L1I AVERAGE MISS LATENCY: 27.4646 cycles
L1I

SHEET
L1I-total_access : 17250272
L1I-total_hit : 15291045
L1I-total_miss : 1959227
L1I-load_access : 10725151
L1I-load_hit : 10434801
L1I-load_miss : 290350
L1I-rfo_access : 0
L1I-rfo_hit : 0
L1I-rfo_miss : 0
L1I-prefetch_access : 6525121
L1I-prefetch_hit : 4856244
L1I-prefetch_miss : 1668877
L1I-writeback_access : 0
L1I-writeback_hit : 0
L1I-writeback_miss : 0
L1I-prefetch_requested : 7215471
L1I-prefetch_issued : 6827774
L1I-prefetch_useful : 983101
L1I-prefetch_useless : 685725
L1I-Avg_miss_latency : 27.4646
L1I-Morteza_fill_l2_prefetches : 0

L2C TOTAL     ACCESS:    8346713  HIT:    7279667  MISS:    1067046
L2C LOAD      ACCESS:    2479421  HIT:    2227848  MISS:     251573
L2C RFO       ACCESS:     103591  HIT:      62307  MISS:      41284
L2C PREFETCH  ACCESS:    5506814  HIT:    4734814  MISS:     772000
L2C WRITEBACK ACCESS:     256887  HIT:     254698  MISS:       2189
L2C PREFETCH  REQUESTED:    8275434  ISSUED:    8271481  USEFUL:      46532  USELESS:     724107
L2C AVERAGE MISS LATENCY: 47.3428 cycles
L2C

SHEET
L2C-total_access : 8346713
L2C-total_hit : 7279667
L2C-total_miss : 1067046
L2C-load_access : 2479421
L2C-load_hit : 2227848
L2C-load_miss : 251573
L2C-rfo_access : 103591
L2C-rfo_hit : 62307
L2C-rfo_miss : 41284
L2C-prefetch_access : 5506814
L2C-prefetch_hit : 4734814
L2C-prefetch_miss : 772000
L2C-writeback_access : 256887
L2C-writeback_hit : 254698
L2C-writeback_miss : 2189
L2C-prefetch_requested : 8275434
L2C-prefetch_issued : 8271481
L2C-prefetch_useful : 46532
L2C-prefetch_useless : 724107
L2C-Avg_miss_latency : 47.3428
L2C-Morteza_fill_l2_prefetches : 1559645

LLC TOTAL     ACCESS:    2616404  HIT:    2484242  MISS:     132162
LLC LOAD      ACCESS:     251238  HIT:     231524  MISS:      19714
LLC RFO       ACCESS:      41278  HIT:      32420  MISS:       8858
LLC PREFETCH  ACCESS:    2182500  HIT:    2079092  MISS:     103408
LLC WRITEBACK ACCESS:     141388  HIT:     141206  MISS:        182
LLC PREFETCH  REQUESTED:          0  ISSUED:          0  USEFUL:      10695  USELESS:      89585
LLC AVERAGE MISS LATENCY: 174.098 cycles
LLC

SHEET
LLC-total_access : 2616404
LLC-total_hit : 2484242
LLC-total_miss : 132162
LLC-load_access : 251238
LLC-load_hit : 231524
LLC-load_miss : 19714
LLC-rfo_access : 41278
LLC-rfo_hit : 32420
LLC-rfo_miss : 8858
LLC-prefetch_access : 2182500
LLC-prefetch_hit : 2079092
LLC-prefetch_miss : 103408
LLC-writeback_access : 141388
LLC-writeback_hit : 141206
LLC-writeback_miss : 182
LLC-prefetch_requested : 0
LLC-prefetch_issued : 0
LLC-prefetch_useful : 10695
LLC-prefetch_useless : 89585
LLC-Avg_miss_latency : 174.098
LLC-Morteza_fill_l2_prefetches : 1415849

Major fault: 0 Minor fault: 6415



Printing Logs
statHeadFound: 440630
statHeadMissing: 644731
statStreamBufferHit: 12507542
statPrefetchEntryFound: 4114051
statCompactorMatch: 11665128
statStreamTrackerLookup: 13592903
statRecord: 1927775
statGetPointer: 1085361
statEnqueuePrefetch: 14041617
statPrefetchQueueIsFull: 31683
StreamBufferHitRate: 0.920152
Regions' size: 4304
next_region_correct: 1608975
next_region_wrong: 314478
next_region_correct_prediction: 0.836503
statStreamBufferLookups: 978689016
statL1iLookups: 112332936
statCompactorLookups: 489344508
morteza: start

SHEET
mana_table_access_counter : 2981442
mana_table_multiple_access_counter : 3538388
hobp_table_access_counter : 20549195
sab_access_counter : 16621593
srq_access_counter : 13201320

morteza: end
CPU 0 L1D next line prefetcher final stats

DRAM Statistics
 CHANNEL 0
 RQ ROW_BUFFER_HIT:      25132  ROW_BUFFER_MISS:     106831
 DBUS_CONGESTED:      61082
 WQ ROW_BUFFER_HIT:       8728  ROW_BUFFER_MISS:      38253  FULL:          0

 AVG_CONGESTED_CYCLE: 5

CPU 0 Branch Prediction Accuracy: 99.4713% MPKI: 1.11484 Average ROB Occupancy at Mispredict: 109.156

Branch types
NOT_BRANCH: 39456582 78.9132%
BRANCH_DIRECT_JUMP: 445350 0.8907%
BRANCH_INDIRECT: 131149 0.262298%
BRANCH_CONDITIONAL: 8130187 16.2604%
BRANCH_DIRECT_CALL: 732485 1.46497%
BRANCH_INDIRECT_CALL: 172369 0.344738%
BRANCH_RETURN: 931558 1.86312%
BRANCH_OTHER: 0 0%

