Initialize SIGNATURE TABLE
ST_SET: 1
ST_WAY: 256
ST_TAG_BIT: 16
ST_TAG_MASK: ffff

Initialize PATTERN TABLE
PT_SET: 512
PT_WAY: 4
SIG_DELTA_BIT: 7
C_SIG_BIT: 4
C_DELTA_BIT: 4

Initialize PREFETCH FILTER
FILTER_SET: 1024
MANA initialize 
tds: 2 tdm: 4
size MANA SINGLE: 74 KB
size MANA NULTIPLE: 43 KB
size HOBPT: 5 KB
size SRQ: 0.14502 KB
size SABs: 0.290039 KB
size prefetch queue: 0.453125 KB
total: 122.888 KB

*** ChampSim Multicore Out-of-Order Simulator ***

Warmup Instructions: 50000000
Simulation Instructions: 50000000
Number of CPUs: 1
LLC sets: 2048
LLC ways: 16
Off-chip DRAM Size: 4096 MB Channels: 1 Width: 64-bit Data Rate: 3200 MT/s

CPU 0 runs /home/mbaradaran/ChampSim/dpc3_traces/server_036.champsimtrace.xz
CPU 0 L1D next line prefetcher
Heartbeat CPU 0 instructions: 10000000 cycles: 3458987 heartbeat IPC: 2.89102 cumulative IPC: 2.89102 (Simulation time: 0 hr 1 min 27 sec) 
Heartbeat CPU 0 instructions: 20000000 cycles: 6924775 heartbeat IPC: 2.88535 cumulative IPC: 2.88818 (Simulation time: 0 hr 2 min 59 sec) 
Heartbeat CPU 0 instructions: 30000003 cycles: 10433102 heartbeat IPC: 2.85036 cumulative IPC: 2.87546 (Simulation time: 0 hr 4 min 25 sec) 
Heartbeat CPU 0 instructions: 40000000 cycles: 13895587 heartbeat IPC: 2.8881 cumulative IPC: 2.87861 (Simulation time: 0 hr 5 min 58 sec) 
Heartbeat CPU 0 instructions: 50000002 cycles: 17357276 heartbeat IPC: 2.88876 cumulative IPC: 2.88064 (Simulation time: 0 hr 7 min 22 sec) 

Warmup complete CPU 0 instructions: 50000002 cycles: 17357276 (Simulation time: 0 hr 7 min 22 sec) 

Heartbeat CPU 0 instructions: 60000002 cycles: 23063563 heartbeat IPC: 1.75245 cumulative IPC: 1.75245 (Simulation time: 0 hr 8 min 33 sec) 
Heartbeat CPU 0 instructions: 70000001 cycles: 28724131 heartbeat IPC: 1.76661 cumulative IPC: 1.7595 (Simulation time: 0 hr 9 min 39 sec) 
Heartbeat CPU 0 instructions: 80000001 cycles: 34413622 heartbeat IPC: 1.75763 cumulative IPC: 1.75888 (Simulation time: 0 hr 10 min 46 sec) 
Heartbeat CPU 0 instructions: 90000002 cycles: 40074576 heartbeat IPC: 1.76649 cumulative IPC: 1.76077 (Simulation time: 0 hr 11 min 52 sec) 
Heartbeat CPU 0 instructions: 100000001 cycles: 45730760 heartbeat IPC: 1.76798 cumulative IPC: 1.76221 (Simulation time: 0 hr 12 min 58 sec) 
Finished CPU 0 instructions: 50000003 cycles: 28373485 cumulative IPC: 1.76221 (Simulation time: 0 hr 12 min 58 sec) 

ChampSim completed all CPUs

Region of Interest Statistics

CPU 0 cumulative IPC: 1.76221 instructions: 50000003 cycles: 28373485

SHEET
IPC : 1.76221

L1D TOTAL     ACCESS:   20736365  HIT:   20676167  MISS:      60198
L1D LOAD      ACCESS:    6793535  HIT:    6758709  MISS:      34826
L1D RFO       ACCESS:    7348681  HIT:    7341459  MISS:       7222
L1D PREFETCH  ACCESS:    6594149  HIT:    6575999  MISS:      18150
L1D WRITEBACK ACCESS:          0  HIT:          0  MISS:          0
L1D PREFETCH  REQUESTED:    6794487  ISSUED:    6630933  USEFUL:       5461  USELESS:      12690
L1D AVERAGE MISS LATENCY: 17.8472 cycles
L1D

SHEET
L1D-total_access : 20736365
L1D-total_hit : 20676167
L1D-total_miss : 60198
L1D-load_access : 6793535
L1D-load_hit : 6758709
L1D-load_miss : 34826
L1D-rfo_access : 7348681
L1D-rfo_hit : 7341459
L1D-rfo_miss : 7222
L1D-prefetch_access : 6594149
L1D-prefetch_hit : 6575999
L1D-prefetch_miss : 18150
L1D-writeback_access : 0
L1D-writeback_hit : 0
L1D-writeback_miss : 0
L1D-prefetch_requested : 6794487
L1D-prefetch_issued : 6630933
L1D-prefetch_useful : 5461
L1D-prefetch_useless : 12690
L1D-Avg_miss_latency : 17.8472
L1D-Morteza_fill_l2_prefetches : 0

L1I TOTAL     ACCESS:   15946026  HIT:   12072840  MISS:    3873186
L1I LOAD      ACCESS:    8919681  HIT:    8730684  MISS:     188997
L1I RFO       ACCESS:          0  HIT:          0  MISS:          0
L1I PREFETCH  ACCESS:    7026345  HIT:    3342156  MISS:    3684189
L1I WRITEBACK ACCESS:          0  HIT:          0  MISS:          0
L1I PREFETCH  REQUESTED:    7235415  ISSUED:    7201741  USEFUL:    3411297  USELESS:     272903
L1I AVERAGE MISS LATENCY: 14.5952 cycles
L1I

SHEET
L1I-total_access : 15946026
L1I-total_hit : 12072840
L1I-total_miss : 3873186
L1I-load_access : 8919681
L1I-load_hit : 8730684
L1I-load_miss : 188997
L1I-rfo_access : 0
L1I-rfo_hit : 0
L1I-rfo_miss : 0
L1I-prefetch_access : 7026345
L1I-prefetch_hit : 3342156
L1I-prefetch_miss : 3684189
L1I-writeback_access : 0
L1I-writeback_hit : 0
L1I-writeback_miss : 0
L1I-prefetch_requested : 7235415
L1I-prefetch_issued : 7201741
L1I-prefetch_useful : 3411297
L1I-prefetch_useless : 272903
L1I-Avg_miss_latency : 14.5952
L1I-Morteza_fill_l2_prefetches : 0

L2C TOTAL     ACCESS:    5484543  HIT:    5482208  MISS:       2335
L2C LOAD      ACCESS:     163482  HIT:     163050  MISS:        432
L2C RFO       ACCESS:       7214  HIT:       7158  MISS:         56
L2C PREFETCH  ACCESS:    5298218  HIT:    5296398  MISS:       1820
L2C WRITEBACK ACCESS:      15629  HIT:      15602  MISS:         27
L2C PREFETCH  REQUESTED:    5294676  ISSUED:    5293149  USEFUL:        246  USELESS:       1031
L2C AVERAGE MISS LATENCY: 163.91 cycles
L2C

SHEET
L2C-total_access : 5484543
L2C-total_hit : 5482208
L2C-total_miss : 2335
L2C-load_access : 163482
L2C-load_hit : 163050
L2C-load_miss : 432
L2C-rfo_access : 7214
L2C-rfo_hit : 7158
L2C-rfo_miss : 56
L2C-prefetch_access : 5298218
L2C-prefetch_hit : 5296398
L2C-prefetch_miss : 1820
L2C-writeback_access : 15629
L2C-writeback_hit : 15602
L2C-writeback_miss : 27
L2C-prefetch_requested : 5294676
L2C-prefetch_issued : 5293149
L2C-prefetch_useful : 246
L2C-prefetch_useless : 1031
L2C-Avg_miss_latency : 163.91
L2C-Morteza_fill_l2_prefetches : 1567027

LLC TOTAL     ACCESS:     999220  HIT:     996252  MISS:       2968
LLC LOAD      ACCESS:        430  HIT:        159  MISS:        271
LLC RFO       ACCESS:         56  HIT:         15  MISS:         41
LLC PREFETCH  ACCESS:     997748  HIT:     995102  MISS:       2646
LLC WRITEBACK ACCESS:        986  HIT:        976  MISS:         10
LLC PREFETCH  REQUESTED:          0  ISSUED:          0  USEFUL:         74  USELESS:        828
LLC AVERAGE MISS LATENCY: 299.824 cycles
LLC

SHEET
LLC-total_access : 999220
LLC-total_hit : 996252
LLC-total_miss : 2968
LLC-load_access : 430
LLC-load_hit : 159
LLC-load_miss : 271
LLC-rfo_access : 56
LLC-rfo_hit : 15
LLC-rfo_miss : 41
LLC-prefetch_access : 997748
LLC-prefetch_hit : 995102
LLC-prefetch_miss : 2646
LLC-writeback_access : 986
LLC-writeback_hit : 976
LLC-writeback_miss : 10
LLC-prefetch_requested : 0
LLC-prefetch_issued : 0
LLC-prefetch_useful : 74
LLC-prefetch_useless : 828
LLC-Avg_miss_latency : 299.824
LLC-Morteza_fill_l2_prefetches : 993965

Major fault: 0 Minor fault: 1989



Printing Logs
statHeadFound: 297811
statHeadMissing: 567291
statStreamBufferHit: 12944635
statPrefetchEntryFound: 4336513
statCompactorMatch: 10827875
statStreamTrackerLookup: 13809737
statRecord: 2981862
statGetPointer: 865102
statEnqueuePrefetch: 14051242
statPrefetchQueueIsFull: 47
StreamBufferHitRate: 0.937356
Regions' size: 2762
next_region_correct: 2348624
next_region_wrong: 630458
next_region_correct_prediction: 0.788372
statStreamBufferLookups: 994301064
statL1iLookups: 112409936
statCompactorLookups: 497150532
morteza: start

SHEET
mana_table_access_counter : 5187614
mana_table_multiple_access_counter : 2431469
hobp_table_access_counter : 23189547
sab_access_counter : 17281148
srq_access_counter : 16165407

morteza: end
CPU 0 L1D next line prefetcher final stats

DRAM Statistics
 CHANNEL 0
 RQ ROW_BUFFER_HIT:        641  ROW_BUFFER_MISS:       2317
 DBUS_CONGESTED:       1927
 WQ ROW_BUFFER_HIT:        314  ROW_BUFFER_MISS:       1558  FULL:          0

 AVG_CONGESTED_CYCLE: 6

CPU 0 Branch Prediction Accuracy: 99.8717% MPKI: 0.21174 Average ROB Occupancy at Mispredict: 198.16

Branch types
NOT_BRANCH: 41748430 83.4969%
BRANCH_DIRECT_JUMP: 468563 0.937126%
BRANCH_INDIRECT: 0 0%
BRANCH_CONDITIONAL: 5599753 11.1995%
BRANCH_DIRECT_CALL: 885105 1.77021%
BRANCH_INDIRECT_CALL: 206338 0.412676%
BRANCH_RETURN: 1091467 2.18293%
BRANCH_OTHER: 0 0%

