Initialize SIGNATURE TABLE
ST_SET: 1
ST_WAY: 256
ST_TAG_BIT: 16
ST_TAG_MASK: ffff

Initialize PATTERN TABLE
PT_SET: 512
PT_WAY: 4
SIG_DELTA_BIT: 7
C_SIG_BIT: 4
C_DELTA_BIT: 4

Initialize PREFETCH FILTER
FILTER_SET: 1024
MANA initialize 
tds: 2 tdm: 4
size MANA SINGLE: 74 KB
size MANA NULTIPLE: 43 KB
size HOBPT: 5 KB
size SRQ: 0.14502 KB
size SABs: 0.290039 KB
size prefetch queue: 0.453125 KB
total: 122.888 KB

*** ChampSim Multicore Out-of-Order Simulator ***

Warmup Instructions: 50000000
Simulation Instructions: 50000000
Number of CPUs: 1
LLC sets: 2048
LLC ways: 16
Off-chip DRAM Size: 4096 MB Channels: 1 Width: 64-bit Data Rate: 3200 MT/s

CPU 0 runs /home/mbaradaran/ChampSim/dpc3_traces/spec_gcc_003.champsimtrace.xz
CPU 0 L1D next line prefetcher
Heartbeat CPU 0 instructions: 10000001 cycles: 3484978 heartbeat IPC: 2.86946 cumulative IPC: 2.86946 (Simulation time: 0 hr 1 min 15 sec) 
Heartbeat CPU 0 instructions: 20000000 cycles: 6953331 heartbeat IPC: 2.88321 cumulative IPC: 2.87632 (Simulation time: 0 hr 2 min 25 sec) 
Heartbeat CPU 0 instructions: 30000002 cycles: 10402727 heartbeat IPC: 2.89906 cumulative IPC: 2.88386 (Simulation time: 0 hr 3 min 30 sec) 
Heartbeat CPU 0 instructions: 40000000 cycles: 13871280 heartbeat IPC: 2.88305 cumulative IPC: 2.88366 (Simulation time: 0 hr 4 min 38 sec) 
Heartbeat CPU 0 instructions: 50000001 cycles: 17184433 heartbeat IPC: 3.01827 cumulative IPC: 2.90961 (Simulation time: 0 hr 5 min 38 sec) 

Warmup complete CPU 0 instructions: 50000001 cycles: 17184433 (Simulation time: 0 hr 5 min 38 sec) 

Heartbeat CPU 0 instructions: 60000000 cycles: 56278517 heartbeat IPC: 0.255793 cumulative IPC: 0.255793 (Simulation time: 0 hr 8 min 5 sec) 
Heartbeat CPU 0 instructions: 70000000 cycles: 97851509 heartbeat IPC: 0.240541 cumulative IPC: 0.247933 (Simulation time: 0 hr 10 min 42 sec) 
Heartbeat CPU 0 instructions: 80000002 cycles: 140337397 heartbeat IPC: 0.235372 cumulative IPC: 0.2436 (Simulation time: 0 hr 13 min 24 sec) 
Heartbeat CPU 0 instructions: 90000000 cycles: 176040456 heartbeat IPC: 0.280088 cumulative IPC: 0.2518 (Simulation time: 0 hr 15 min 47 sec) 
Heartbeat CPU 0 instructions: 100000001 cycles: 220864254 heartbeat IPC: 0.223096 cumulative IPC: 0.245483 (Simulation time: 0 hr 18 min 35 sec) 
Finished CPU 0 instructions: 50000000 cycles: 203679821 cumulative IPC: 0.245483 (Simulation time: 0 hr 18 min 35 sec) 

ChampSim completed all CPUs

Region of Interest Statistics

CPU 0 cumulative IPC: 0.245483 instructions: 50000000 cycles: 203679821

SHEET
IPC : 0.245483

L1D TOTAL     ACCESS:   17029648  HIT:   11305339  MISS:    5724309
L1D LOAD      ACCESS:    4645855  HIT:    4263034  MISS:     382821
L1D RFO       ACCESS:    8224675  HIT:    3173112  MISS:    5051563
L1D PREFETCH  ACCESS:    4159118  HIT:    3869193  MISS:     289925
L1D WRITEBACK ACCESS:          0  HIT:          0  MISS:          0
L1D PREFETCH  REQUESTED:    4663820  ISSUED:    4605576  USEFUL:     152450  USELESS:     137654
L1D AVERAGE MISS LATENCY: 483.579 cycles
L1D

SHEET
L1D-total_access : 17029648
L1D-total_hit : 11305339
L1D-total_miss : 5724309
L1D-load_access : 4645855
L1D-load_hit : 4263034
L1D-load_miss : 382821
L1D-rfo_access : 8224675
L1D-rfo_hit : 3173112
L1D-rfo_miss : 5051563
L1D-prefetch_access : 4159118
L1D-prefetch_hit : 3869193
L1D-prefetch_miss : 289925
L1D-writeback_access : 0
L1D-writeback_hit : 0
L1D-writeback_miss : 0
L1D-prefetch_requested : 4663820
L1D-prefetch_issued : 4605576
L1D-prefetch_useful : 152450
L1D-prefetch_useless : 137654
L1D-Avg_miss_latency : 483.579
L1D-Morteza_fill_l2_prefetches : 0

L1I TOTAL     ACCESS:   16246480  HIT:   14739934  MISS:    1506546
L1I LOAD      ACCESS:   11254745  HIT:   10970030  MISS:     284715
L1I RFO       ACCESS:          0  HIT:          0  MISS:          0
L1I PREFETCH  ACCESS:    4991735  HIT:    3769904  MISS:    1221831
L1I WRITEBACK ACCESS:          0  HIT:          0  MISS:          0
L1I PREFETCH  REQUESTED:    6227371  ISSUED:    5495526  USEFUL:     656095  USELESS:     565711
L1I AVERAGE MISS LATENCY: 40.9363 cycles
L1I

SHEET
L1I-total_access : 16246480
L1I-total_hit : 14739934
L1I-total_miss : 1506546
L1I-load_access : 11254745
L1I-load_hit : 10970030
L1I-load_miss : 284715
L1I-rfo_access : 0
L1I-rfo_hit : 0
L1I-rfo_miss : 0
L1I-prefetch_access : 4991735
L1I-prefetch_hit : 3769904
L1I-prefetch_miss : 1221831
L1I-writeback_access : 0
L1I-writeback_hit : 0
L1I-writeback_miss : 0
L1I-prefetch_requested : 6227371
L1I-prefetch_issued : 5495526
L1I-prefetch_useful : 656095
L1I-prefetch_useless : 565711
L1I-Avg_miss_latency : 40.9363
L1I-Morteza_fill_l2_prefetches : 0

L2C TOTAL     ACCESS:   12828255  HIT:    6767973  MISS:    6060282
L2C LOAD      ACCESS:     425801  HIT:     191137  MISS:     234664
L2C RFO       ACCESS:    5049843  HIT:       6533  MISS:    5043310
L2C PREFETCH  ACCESS:    2194738  HIT:    1412692  MISS:     782046
L2C WRITEBACK ACCESS:    5157873  HIT:    5157611  MISS:        262
L2C PREFETCH  REQUESTED:    2423701  ISSUED:    2423481  USEFUL:      78455  USELESS:     700656
L2C AVERAGE MISS LATENCY: 452.279 cycles
L2C

SHEET
L2C-total_access : 12828255
L2C-total_hit : 6767973
L2C-total_miss : 6060282
L2C-load_access : 425801
L2C-load_hit : 191137
L2C-load_miss : 234664
L2C-rfo_access : 5049843
L2C-rfo_hit : 6533
L2C-rfo_miss : 5043310
L2C-prefetch_access : 2194738
L2C-prefetch_hit : 1412692
L2C-prefetch_miss : 782046
L2C-writeback_access : 5157873
L2C-writeback_hit : 5157611
L2C-writeback_miss : 262
L2C-prefetch_requested : 2423701
L2C-prefetch_issued : 2423481
L2C-prefetch_useful : 78455
L2C-prefetch_useless : 700656
L2C-Avg_miss_latency : 452.279
L2C-Morteza_fill_l2_prefetches : 400918

LLC TOTAL     ACCESS:   12075571  HIT:    7578463  MISS:    4497108
LLC LOAD      ACCESS:     234618  HIT:     179065  MISS:      55553
LLC RFO       ACCESS:    5043310  HIT:     816853  MISS:    4226457
LLC PREFETCH  ACCESS:    1664122  HIT:    1449024  MISS:     215098
LLC WRITEBACK ACCESS:    5133521  HIT:    5133521  MISS:          0
LLC PREFETCH  REQUESTED:          0  ISSUED:          0  USEFUL:      18468  USELESS:     196341
LLC AVERAGE MISS LATENCY: 575.031 cycles
LLC

SHEET
LLC-total_access : 12075571
LLC-total_hit : 7578463
LLC-total_miss : 4497108
LLC-load_access : 234618
LLC-load_hit : 179065
LLC-load_miss : 55553
LLC-rfo_access : 5043310
LLC-rfo_hit : 816853
LLC-rfo_miss : 4226457
LLC-prefetch_access : 1664122
LLC-prefetch_hit : 1449024
LLC-prefetch_miss : 215098
LLC-writeback_access : 5133521
LLC-writeback_hit : 5133521
LLC-writeback_miss : 0
LLC-prefetch_requested : 0
LLC-prefetch_issued : 0
LLC-prefetch_useful : 18468
LLC-prefetch_useless : 196341
LLC-Avg_miss_latency : 575.031
LLC-Morteza_fill_l2_prefetches : 896549

Major fault: 0 Minor fault: 2918



Printing Logs
statHeadFound: 488795
statHeadMissing: 2062942
statStreamBufferHit: 7412416
statPrefetchEntryFound: 3382863
statCompactorMatch: 9000358
statStreamTrackerLookup: 9964153
statRecord: 963795
statGetPointer: 2551737
statEnqueuePrefetch: 10364998
statPrefetchQueueIsFull: 24690
StreamBufferHitRate: 0.743908
Regions' size: 1470
next_region_correct: 561962
next_region_wrong: 400345
next_region_correct_prediction: 0.583974
statStreamBufferLookups: 717419016
statL1iLookups: 82919984
statCompactorLookups: 358709508
morteza: start

SHEET
mana_table_access_counter : 1484156
mana_table_multiple_access_counter : 3378366
hobp_table_access_counter : 27680559
sab_access_counter : 10795279
srq_access_counter : 9331765

morteza: end
CPU 0 L1D next line prefetcher final stats

DRAM Statistics
 CHANNEL 0
 RQ ROW_BUFFER_HIT:    1342493  ROW_BUFFER_MISS:    3154223
 DBUS_CONGESTED:    7833781
 WQ ROW_BUFFER_HIT:    1141453  ROW_BUFFER_MISS:    3112500  FULL:         65

 AVG_CONGESTED_CYCLE: 6

CPU 0 Branch Prediction Accuracy: 99.665% MPKI: 0.78342 Average ROB Occupancy at Mispredict: 103.132

Branch types
NOT_BRANCH: 38305861 76.6117%
BRANCH_DIRECT_JUMP: 384281 0.768562%
BRANCH_INDIRECT: 71949 0.143898%
BRANCH_CONDITIONAL: 9879826 19.7597%
BRANCH_DIRECT_CALL: 650586 1.30117%
BRANCH_INDIRECT_CALL: 28456 0.056912%
BRANCH_RETURN: 679046 1.35809%
BRANCH_OTHER: 0 0%

