Initialize SIGNATURE TABLE
ST_SET: 1
ST_WAY: 256
ST_TAG_BIT: 16
ST_TAG_MASK: ffff

Initialize PATTERN TABLE
PT_SET: 512
PT_WAY: 4
SIG_DELTA_BIT: 7
C_SIG_BIT: 4
C_DELTA_BIT: 4

Initialize PREFETCH FILTER
FILTER_SET: 1024
MANA initialize 
tds: 2 tdm: 2
size MANA SINGLE: 15.5 KB
size MANA NULTIPLE: 0 KB
size HOBPT: 0.703125 KB
size SRQ: 0.14502 KB
size SABs: 0.290039 KB
size prefetch queue: 0.453125 KB
total: 17.0913 KB

*** ChampSim Multicore Out-of-Order Simulator ***

Warmup Instructions: 50000000
Simulation Instructions: 50000000
Number of CPUs: 1
LLC sets: 2048
LLC ways: 16
Off-chip DRAM Size: 4096 MB Channels: 1 Width: 64-bit Data Rate: 3200 MT/s

CPU 0 runs /home/mbaradaran/ChampSim/dpc3_traces/client_007.champsimtrace.xz
CPU 0 L1D next line prefetcher
Heartbeat CPU 0 instructions: 10000001 cycles: 3642244 heartbeat IPC: 2.74556 cumulative IPC: 2.74556 (Simulation time: 0 hr 1 min 15 sec) 
Heartbeat CPU 0 instructions: 20000003 cycles: 7034006 heartbeat IPC: 2.94832 cumulative IPC: 2.84333 (Simulation time: 0 hr 2 min 36 sec) 
Heartbeat CPU 0 instructions: 30000000 cycles: 10905649 heartbeat IPC: 2.58288 cumulative IPC: 2.75087 (Simulation time: 0 hr 4 min 3 sec) 
Heartbeat CPU 0 instructions: 40000003 cycles: 15065867 heartbeat IPC: 2.40372 cumulative IPC: 2.65501 (Simulation time: 0 hr 5 min 32 sec) 
Heartbeat CPU 0 instructions: 50000002 cycles: 18471048 heartbeat IPC: 2.9367 cumulative IPC: 2.70694 (Simulation time: 0 hr 6 min 55 sec) 

Warmup complete CPU 0 instructions: 50000002 cycles: 18471048 (Simulation time: 0 hr 6 min 55 sec) 

Heartbeat CPU 0 instructions: 60000003 cycles: 25502418 heartbeat IPC: 1.4222 cumulative IPC: 1.4222 (Simulation time: 0 hr 8 min 18 sec) 
Heartbeat CPU 0 instructions: 70000003 cycles: 34405516 heartbeat IPC: 1.1232 cumulative IPC: 1.25514 (Simulation time: 0 hr 9 min 46 sec) 
Heartbeat CPU 0 instructions: 80000002 cycles: 39790622 heartbeat IPC: 1.85697 cumulative IPC: 1.40716 (Simulation time: 0 hr 10 min 47 sec) 
Heartbeat CPU 0 instructions: 90000002 cycles: 47579376 heartbeat IPC: 1.2839 cumulative IPC: 1.37418 (Simulation time: 0 hr 12 min 9 sec) 
Heartbeat CPU 0 instructions: 100000002 cycles: 56539081 heartbeat IPC: 1.11611 cumulative IPC: 1.31344 (Simulation time: 0 hr 13 min 25 sec) 
Finished CPU 0 instructions: 50000000 cycles: 38068033 cumulative IPC: 1.31344 (Simulation time: 0 hr 13 min 25 sec) 

ChampSim completed all CPUs

Region of Interest Statistics

CPU 0 cumulative IPC: 1.31344 instructions: 50000000 cycles: 38068033

SHEET
IPC : 1.31344

L1D TOTAL     ACCESS:   21302241  HIT:   20132942  MISS:    1169299
L1D LOAD      ACCESS:    8419667  HIT:    7881499  MISS:     538168
L1D RFO       ACCESS:    4871822  HIT:    4780600  MISS:      91222
L1D PREFETCH  ACCESS:    8010752  HIT:    7470843  MISS:     539909
L1D WRITEBACK ACCESS:          0  HIT:          0  MISS:          0
L1D PREFETCH  REQUESTED:    8472058  ISSUED:    8229403  USEFUL:     159297  USELESS:     380627
L1D AVERAGE MISS LATENCY: 34.3893 cycles
L1D

SHEET
L1D-total_access : 21302241
L1D-total_hit : 20132942
L1D-total_miss : 1169299
L1D-load_access : 8419667
L1D-load_hit : 7881499
L1D-load_miss : 538168
L1D-rfo_access : 4871822
L1D-rfo_hit : 4780600
L1D-rfo_miss : 91222
L1D-prefetch_access : 8010752
L1D-prefetch_hit : 7470843
L1D-prefetch_miss : 539909
L1D-writeback_access : 0
L1D-writeback_hit : 0
L1D-writeback_miss : 0
L1D-prefetch_requested : 8472058
L1D-prefetch_issued : 8229403
L1D-prefetch_useful : 159297
L1D-prefetch_useless : 380627
L1D-Avg_miss_latency : 34.3893
L1D-Morteza_fill_l2_prefetches : 0

L1I TOTAL     ACCESS:   13333495  HIT:   12306874  MISS:    1026621
L1I LOAD      ACCESS:    9073760  HIT:    8900901  MISS:     172859
L1I RFO       ACCESS:          0  HIT:          0  MISS:          0
L1I PREFETCH  ACCESS:    4259735  HIT:    3405973  MISS:     853762
L1I WRITEBACK ACCESS:          0  HIT:          0  MISS:          0
L1I PREFETCH  REQUESTED:    4505057  ISSUED:    4496550  USEFUL:     694397  USELESS:     159385
L1I AVERAGE MISS LATENCY: 15.7323 cycles
L1I

SHEET
L1I-total_access : 13333495
L1I-total_hit : 12306874
L1I-total_miss : 1026621
L1I-load_access : 9073760
L1I-load_hit : 8900901
L1I-load_miss : 172859
L1I-rfo_access : 0
L1I-rfo_hit : 0
L1I-rfo_miss : 0
L1I-prefetch_access : 4259735
L1I-prefetch_hit : 3405973
L1I-prefetch_miss : 853762
L1I-writeback_access : 0
L1I-writeback_hit : 0
L1I-writeback_miss : 0
L1I-prefetch_requested : 4505057
L1I-prefetch_issued : 4496550
L1I-prefetch_useful : 694397
L1I-prefetch_useless : 159385
L1I-Avg_miss_latency : 15.7323
L1I-Morteza_fill_l2_prefetches : 0

L2C TOTAL     ACCESS:    3198005  HIT:    2990943  MISS:     207062
L2C LOAD      ACCESS:     632712  HIT:     562418  MISS:      70294
L2C RFO       ACCESS:      89552  HIT:      47956  MISS:      41596
L2C PREFETCH  ACCESS:    2148034  HIT:    2053051  MISS:      94983
L2C WRITEBACK ACCESS:     327707  HIT:     327518  MISS:        189
L2C PREFETCH  REQUESTED:    2547793  ISSUED:    2543421  USEFUL:       9570  USELESS:      84865
L2C AVERAGE MISS LATENCY: 124.458 cycles
L2C

SHEET
L2C-total_access : 3198005
L2C-total_hit : 2990943
L2C-total_miss : 207062
L2C-load_access : 632712
L2C-load_hit : 562418
L2C-load_miss : 70294
L2C-rfo_access : 89552
L2C-rfo_hit : 47956
L2C-rfo_miss : 41596
L2C-prefetch_access : 2148034
L2C-prefetch_hit : 2053051
L2C-prefetch_miss : 94983
L2C-writeback_access : 327707
L2C-writeback_hit : 327518
L2C-writeback_miss : 189
L2C-prefetch_requested : 2547793
L2C-prefetch_issued : 2543421
L2C-prefetch_useful : 9570
L2C-prefetch_useless : 84865
L2C-Avg_miss_latency : 124.458
L2C-Morteza_fill_l2_prefetches : 688700

LLC TOTAL     ACCESS:     997197  HIT:     828752  MISS:     168445
LLC LOAD      ACCESS:      70204  HIT:      34901  MISS:      35303
LLC RFO       ACCESS:      41596  HIT:       7147  MISS:      34449
LLC PREFETCH  ACCESS:     810913  HIT:     712532  MISS:      98381
LLC WRITEBACK ACCESS:      74484  HIT:      74172  MISS:        312
LLC PREFETCH  REQUESTED:          0  ISSUED:          0  USEFUL:      18814  USELESS:      79739
LLC AVERAGE MISS LATENCY: 181.277 cycles
LLC

SHEET
LLC-total_access : 997197
LLC-total_hit : 828752
LLC-total_miss : 168445
LLC-load_access : 70204
LLC-load_hit : 34901
LLC-load_miss : 35303
LLC-rfo_access : 41596
LLC-rfo_hit : 7147
LLC-rfo_miss : 34449
LLC-prefetch_access : 810913
LLC-prefetch_hit : 712532
LLC-prefetch_miss : 98381
LLC-writeback_access : 74484
LLC-writeback_hit : 74172
LLC-writeback_miss : 312
LLC-prefetch_requested : 0
LLC-prefetch_issued : 0
LLC-prefetch_useful : 18814
LLC-prefetch_useless : 79739
LLC-Avg_miss_latency : 181.277
LLC-Morteza_fill_l2_prefetches : 660753

Major fault: 0 Minor fault: 4405



Printing Logs
statHeadFound: 663098
statHeadMissing: 1398404
statStreamBufferHit: 11608906
statPrefetchEntryFound: 3113500
statCompactorMatch: 12595555
statStreamTrackerLookup: 13670408
statRecord: 1074853
statGetPointer: 2061502
statEnqueuePrefetch: 9169351
statPrefetchQueueIsFull: 899
StreamBufferHitRate: 0.8492
Regions' size: 5002
next_region_correct: 673244
next_region_wrong: 396589
next_region_correct_prediction: 0.629298
statStreamBufferLookups: 984269376
statL1iLookups: 73354808
statCompactorLookups: 492134688
morteza: start

SHEET
mana_table_access_counter : 4189234
hobp_table_access_counter : 15659811
sab_access_counter : 14722406
srq_access_counter : 12354441

morteza: end
CPU 0 L1D next line prefetcher final stats

DRAM Statistics
 CHANNEL 0
 RQ ROW_BUFFER_HIT:      35504  ROW_BUFFER_MISS:     132624
 DBUS_CONGESTED:      94782
 WQ ROW_BUFFER_HIT:      13001  ROW_BUFFER_MISS:      45614  FULL:          0

 AVG_CONGESTED_CYCLE: 5

CPU 0 Branch Prediction Accuracy: 98.8607% MPKI: 1.8623 Average ROB Occupancy at Mispredict: 110.772

Branch types
NOT_BRANCH: 41826773 83.6535%
BRANCH_DIRECT_JUMP: 735330 1.47066%
BRANCH_INDIRECT: 269194 0.538388%
BRANCH_CONDITIONAL: 5957947 11.9159%
BRANCH_DIRECT_CALL: 368758 0.737516%
BRANCH_INDIRECT_CALL: 226975 0.45395%
BRANCH_RETURN: 614696 1.22939%
BRANCH_OTHER: 0 0%

