Initialize SIGNATURE TABLE
ST_SET: 1
ST_WAY: 256
ST_TAG_BIT: 16
ST_TAG_MASK: ffff

Initialize PATTERN TABLE
PT_SET: 512
PT_WAY: 4
SIG_DELTA_BIT: 7
C_SIG_BIT: 4
C_DELTA_BIT: 4

Initialize PREFETCH FILTER
FILTER_SET: 1024
MANA initialize 
tds: 2 tdm: 2
size MANA SINGLE: 15.5 KB
size MANA NULTIPLE: 0 KB
size HOBPT: 0.703125 KB
size SRQ: 0.14502 KB
size SABs: 0.290039 KB
size prefetch queue: 0.453125 KB
total: 17.0913 KB

*** ChampSim Multicore Out-of-Order Simulator ***

Warmup Instructions: 50000000
Simulation Instructions: 50000000
Number of CPUs: 1
LLC sets: 2048
LLC ways: 16
Off-chip DRAM Size: 4096 MB Channels: 1 Width: 64-bit Data Rate: 3200 MT/s

CPU 0 runs /home/mbaradaran/ChampSim/dpc3_traces/client_005.champsimtrace.xz
CPU 0 L1D next line prefetcher
Heartbeat CPU 0 instructions: 10000001 cycles: 3291874 heartbeat IPC: 3.03778 cumulative IPC: 3.03778 (Simulation time: 0 hr 1 min 14 sec) 
Heartbeat CPU 0 instructions: 20000002 cycles: 6698255 heartbeat IPC: 2.93567 cumulative IPC: 2.98585 (Simulation time: 0 hr 2 min 36 sec) 
Heartbeat CPU 0 instructions: 30000001 cycles: 10391596 heartbeat IPC: 2.70758 cumulative IPC: 2.88695 (Simulation time: 0 hr 4 min 0 sec) 
Heartbeat CPU 0 instructions: 40000000 cycles: 14069413 heartbeat IPC: 2.719 cumulative IPC: 2.84305 (Simulation time: 0 hr 5 min 25 sec) 
Heartbeat CPU 0 instructions: 50000001 cycles: 17342741 heartbeat IPC: 3.055 cumulative IPC: 2.88305 (Simulation time: 0 hr 6 min 37 sec) 

Warmup complete CPU 0 instructions: 50000001 cycles: 17342741 (Simulation time: 0 hr 6 min 37 sec) 

Heartbeat CPU 0 instructions: 60000002 cycles: 25327897 heartbeat IPC: 1.25232 cumulative IPC: 1.25232 (Simulation time: 0 hr 7 min 44 sec) 
Heartbeat CPU 0 instructions: 70000003 cycles: 32764926 heartbeat IPC: 1.34462 cumulative IPC: 1.29683 (Simulation time: 0 hr 8 min 59 sec) 
Heartbeat CPU 0 instructions: 80000001 cycles: 39720665 heartbeat IPC: 1.43766 cumulative IPC: 1.34061 (Simulation time: 0 hr 10 min 18 sec) 
Heartbeat CPU 0 instructions: 90000002 cycles: 49293422 heartbeat IPC: 1.04463 cumulative IPC: 1.25193 (Simulation time: 0 hr 11 min 38 sec) 
Heartbeat CPU 0 instructions: 100000002 cycles: 57084466 heartbeat IPC: 1.28352 cumulative IPC: 1.25812 (Simulation time: 0 hr 12 min 41 sec) 
Finished CPU 0 instructions: 50000001 cycles: 39741725 cumulative IPC: 1.25812 (Simulation time: 0 hr 12 min 41 sec) 

ChampSim completed all CPUs

Region of Interest Statistics

CPU 0 cumulative IPC: 1.25812 instructions: 50000001 cycles: 39741725

SHEET
IPC : 1.25812

L1D TOTAL     ACCESS:   19771014  HIT:   19235034  MISS:     535980
L1D LOAD      ACCESS:    6713300  HIT:    6541662  MISS:     171638
L1D RFO       ACCESS:    6799615  HIT:    6615248  MISS:     184367
L1D PREFETCH  ACCESS:    6258099  HIT:    6078124  MISS:     179975
L1D WRITEBACK ACCESS:          0  HIT:          0  MISS:          0
L1D PREFETCH  REQUESTED:    6736994  ISSUED:    6364748  USEFUL:      59615  USELESS:     120248
L1D AVERAGE MISS LATENCY: 92.9696 cycles
L1D

SHEET
L1D-total_access : 19771014
L1D-total_hit : 19235034
L1D-total_miss : 535980
L1D-load_access : 6713300
L1D-load_hit : 6541662
L1D-load_miss : 171638
L1D-rfo_access : 6799615
L1D-rfo_hit : 6615248
L1D-rfo_miss : 184367
L1D-prefetch_access : 6258099
L1D-prefetch_hit : 6078124
L1D-prefetch_miss : 179975
L1D-writeback_access : 0
L1D-writeback_hit : 0
L1D-writeback_miss : 0
L1D-prefetch_requested : 6736994
L1D-prefetch_issued : 6364748
L1D-prefetch_useful : 59615
L1D-prefetch_useless : 120248
L1D-Avg_miss_latency : 92.9696
L1D-Morteza_fill_l2_prefetches : 0

L1I TOTAL     ACCESS:   16664545  HIT:   15414556  MISS:    1249989
L1I LOAD      ACCESS:    9307989  HIT:    8979315  MISS:     328674
L1I RFO       ACCESS:          0  HIT:          0  MISS:          0
L1I PREFETCH  ACCESS:    7356556  HIT:    6435241  MISS:     921315
L1I WRITEBACK ACCESS:          0  HIT:          0  MISS:          0
L1I PREFETCH  REQUESTED:    7829359  ISSUED:    7820376  USEFUL:     634530  USELESS:     286722
L1I AVERAGE MISS LATENCY: 18.1286 cycles
L1I

SHEET
L1I-total_access : 16664545
L1I-total_hit : 15414556
L1I-total_miss : 1249989
L1I-load_access : 9307989
L1I-load_hit : 8979315
L1I-load_miss : 328674
L1I-rfo_access : 0
L1I-rfo_hit : 0
L1I-rfo_miss : 0
L1I-prefetch_access : 7356556
L1I-prefetch_hit : 6435241
L1I-prefetch_miss : 921315
L1I-writeback_access : 0
L1I-writeback_hit : 0
L1I-writeback_miss : 0
L1I-prefetch_requested : 7829359
L1I-prefetch_issued : 7820376
L1I-prefetch_useful : 634530
L1I-prefetch_useless : 286722
L1I-Avg_miss_latency : 18.1286
L1I-Morteza_fill_l2_prefetches : 0

L2C TOTAL     ACCESS:    2650374  HIT:    2263942  MISS:     386432
L2C LOAD      ACCESS:     389866  HIT:     292425  MISS:      97441
L2C RFO       ACCESS:     180760  HIT:      32341  MISS:     148419
L2C PREFETCH  ACCESS:    1826699  HIT:    1687435  MISS:     139264
L2C WRITEBACK ACCESS:     253049  HIT:     251741  MISS:       1308
L2C PREFETCH  REQUESTED:    1690356  ISSUED:    1690097  USEFUL:      15996  USELESS:     121676
L2C AVERAGE MISS LATENCY: 127.14 cycles
L2C

SHEET
L2C-total_access : 2650374
L2C-total_hit : 2263942
L2C-total_miss : 386432
L2C-load_access : 389866
L2C-load_hit : 292425
L2C-load_miss : 97441
L2C-rfo_access : 180760
L2C-rfo_hit : 32341
L2C-rfo_miss : 148419
L2C-prefetch_access : 1826699
L2C-prefetch_hit : 1687435
L2C-prefetch_miss : 139264
L2C-writeback_access : 253049
L2C-writeback_hit : 251741
L2C-writeback_miss : 1308
L2C-prefetch_requested : 1690356
L2C-prefetch_issued : 1690097
L2C-prefetch_useful : 15996
L2C-prefetch_useless : 121676
L2C-Avg_miss_latency : 127.14
L2C-Morteza_fill_l2_prefetches : 616086

LLC TOTAL     ACCESS:     946433  HIT:     645557  MISS:     300876
LLC LOAD      ACCESS:      97428  HIT:      52731  MISS:      44697
LLC RFO       ACCESS:     148418  HIT:      16905  MISS:     131513
LLC PREFETCH  ACCESS:     502019  HIT:     378302  MISS:     123717
LLC WRITEBACK ACCESS:     198568  HIT:     197619  MISS:        949
LLC PREFETCH  REQUESTED:          0  ISSUED:          0  USEFUL:      28884  USELESS:      91579
LLC AVERAGE MISS LATENCY: 167.803 cycles
LLC

SHEET
LLC-total_access : 946433
LLC-total_hit : 645557
LLC-total_miss : 300876
LLC-load_access : 97428
LLC-load_hit : 52731
LLC-load_miss : 44697
LLC-rfo_access : 148418
LLC-rfo_hit : 16905
LLC-rfo_miss : 131513
LLC-prefetch_access : 502019
LLC-prefetch_hit : 378302
LLC-prefetch_miss : 123717
LLC-writeback_access : 198568
LLC-writeback_hit : 197619
LLC-writeback_miss : 949
LLC-prefetch_requested : 0
LLC-prefetch_issued : 0
LLC-prefetch_useful : 28884
LLC-prefetch_useless : 91579
LLC-Avg_miss_latency : 167.803
LLC-Morteza_fill_l2_prefetches : 294919

Major fault: 0 Minor fault: 6084



Printing Logs
statHeadFound: 1021292
statHeadMissing: 827145
statStreamBufferHit: 12802101
statPrefetchEntryFound: 5387297
statCompactorMatch: 12095906
statStreamTrackerLookup: 14650538
statRecord: 2554632
statGetPointer: 1848437
statEnqueuePrefetch: 15192639
statPrefetchQueueIsFull: 40
StreamBufferHitRate: 0.873831
Regions' size: 7929
next_region_correct: 1746748
next_region_wrong: 799937
next_region_correct_prediction: 0.685891
statStreamBufferLookups: 1054838736
statL1iLookups: 121541112
statCompactorLookups: 527419368
morteza: start

SHEET
mana_table_access_counter : 7941951
hobp_table_access_counter : 22999591
sab_access_counter : 18189398
srq_access_counter : 15513410

morteza: end
CPU 0 L1D next line prefetcher final stats

DRAM Statistics
 CHANNEL 0
 RQ ROW_BUFFER_HIT:      97082  ROW_BUFFER_MISS:     202828
 DBUS_CONGESTED:     238707
 WQ ROW_BUFFER_HIT:      52610  ROW_BUFFER_MISS:     130421  FULL:          0

 AVG_CONGESTED_CYCLE: 6

CPU 0 Branch Prediction Accuracy: 97.8666% MPKI: 3.9013 Average ROB Occupancy at Mispredict: 82.4844

Branch types
NOT_BRANCH: 40856330 81.7127%
BRANCH_DIRECT_JUMP: 484667 0.969334%
BRANCH_INDIRECT: 85086 0.170172%
BRANCH_CONDITIONAL: 6230887 12.4618%
BRANCH_DIRECT_CALL: 1028917 2.05783%
BRANCH_INDIRECT_CALL: 141825 0.28365%
BRANCH_RETURN: 1171986 2.34397%
BRANCH_OTHER: 0 0%

