Initialize SIGNATURE TABLE
ST_SET: 1
ST_WAY: 256
ST_TAG_BIT: 16
ST_TAG_MASK: ffff

Initialize PATTERN TABLE
PT_SET: 512
PT_WAY: 4
SIG_DELTA_BIT: 7
C_SIG_BIT: 4
C_DELTA_BIT: 4

Initialize PREFETCH FILTER
FILTER_SET: 1024
MANA initialize 
tds: 2 tdm: 2
size MANA SINGLE: 15.5 KB
size MANA NULTIPLE: 0 KB
size HOBPT: 0.703125 KB
size SRQ: 0.14502 KB
size SABs: 0.290039 KB
size prefetch queue: 0.453125 KB
total: 17.0913 KB

*** ChampSim Multicore Out-of-Order Simulator ***

Warmup Instructions: 50000000
Simulation Instructions: 50000000
Number of CPUs: 1
LLC sets: 2048
LLC ways: 16
Off-chip DRAM Size: 4096 MB Channels: 1 Width: 64-bit Data Rate: 3200 MT/s

CPU 0 runs /home/mbaradaran/ChampSim/dpc3_traces/client_003.champsimtrace.xz
CPU 0 L1D next line prefetcher
Heartbeat CPU 0 instructions: 10000000 cycles: 3478318 heartbeat IPC: 2.87495 cumulative IPC: 2.87495 (Simulation time: 0 hr 1 min 14 sec) 
Heartbeat CPU 0 instructions: 20000002 cycles: 6932511 heartbeat IPC: 2.89503 cumulative IPC: 2.88496 (Simulation time: 0 hr 2 min 33 sec) 
Heartbeat CPU 0 instructions: 30000003 cycles: 10493548 heartbeat IPC: 2.80817 cumulative IPC: 2.8589 (Simulation time: 0 hr 3 min 56 sec) 
Heartbeat CPU 0 instructions: 40000001 cycles: 14110078 heartbeat IPC: 2.76508 cumulative IPC: 2.83485 (Simulation time: 0 hr 5 min 19 sec) 
Heartbeat CPU 0 instructions: 50000003 cycles: 17655238 heartbeat IPC: 2.82075 cumulative IPC: 2.83202 (Simulation time: 0 hr 6 min 35 sec) 

Warmup complete CPU 0 instructions: 50000003 cycles: 17655238 (Simulation time: 0 hr 6 min 35 sec) 

Heartbeat CPU 0 instructions: 60000002 cycles: 24073921 heartbeat IPC: 1.55795 cumulative IPC: 1.55795 (Simulation time: 0 hr 7 min 42 sec) 
Heartbeat CPU 0 instructions: 70000001 cycles: 30257926 heartbeat IPC: 1.61707 cumulative IPC: 1.58696 (Simulation time: 0 hr 8 min 54 sec) 
Heartbeat CPU 0 instructions: 80000003 cycles: 37303477 heartbeat IPC: 1.41934 cumulative IPC: 1.52685 (Simulation time: 0 hr 9 min 58 sec) 
Heartbeat CPU 0 instructions: 90000000 cycles: 46336662 heartbeat IPC: 1.10703 cumulative IPC: 1.39463 (Simulation time: 0 hr 10 min 55 sec) 
Heartbeat CPU 0 instructions: 100000003 cycles: 57257137 heartbeat IPC: 0.915711 cumulative IPC: 1.26257 (Simulation time: 0 hr 12 min 2 sec) 
Finished CPU 0 instructions: 50000000 cycles: 39601899 cumulative IPC: 1.26257 (Simulation time: 0 hr 12 min 2 sec) 

ChampSim completed all CPUs

Region of Interest Statistics

CPU 0 cumulative IPC: 1.26257 instructions: 50000000 cycles: 39601899

SHEET
IPC : 1.26257

L1D TOTAL     ACCESS:   17758724  HIT:   17262636  MISS:     496088
L1D LOAD      ACCESS:    6091309  HIT:    5966065  MISS:     125244
L1D RFO       ACCESS:    5958764  HIT:    5724476  MISS:     234288
L1D PREFETCH  ACCESS:    5708651  HIT:    5572095  MISS:     136556
L1D WRITEBACK ACCESS:          0  HIT:          0  MISS:          0
L1D PREFETCH  REQUESTED:    6132745  ISSUED:    5990786  USEFUL:      68547  USELESS:      68057
L1D AVERAGE MISS LATENCY: 123.408 cycles
L1D

SHEET
L1D-total_access : 17758724
L1D-total_hit : 17262636
L1D-total_miss : 496088
L1D-load_access : 6091309
L1D-load_hit : 5966065
L1D-load_miss : 125244
L1D-rfo_access : 5958764
L1D-rfo_hit : 5724476
L1D-rfo_miss : 234288
L1D-prefetch_access : 5708651
L1D-prefetch_hit : 5572095
L1D-prefetch_miss : 136556
L1D-writeback_access : 0
L1D-writeback_hit : 0
L1D-writeback_miss : 0
L1D-prefetch_requested : 6132745
L1D-prefetch_issued : 5990786
L1D-prefetch_useful : 68547
L1D-prefetch_useless : 68057
L1D-Avg_miss_latency : 123.408
L1D-Morteza_fill_l2_prefetches : 0

L1I TOTAL     ACCESS:   14927253  HIT:   14000195  MISS:     927058
L1I LOAD      ACCESS:    9442556  HIT:    9204285  MISS:     238271
L1I RFO       ACCESS:          0  HIT:          0  MISS:          0
L1I PREFETCH  ACCESS:    5484697  HIT:    4795910  MISS:     688787
L1I WRITEBACK ACCESS:          0  HIT:          0  MISS:          0
L1I PREFETCH  REQUESTED:    5842554  ISSUED:    5835221  USEFUL:     486682  USELESS:     202144
L1I AVERAGE MISS LATENCY: 17.7715 cycles
L1I

SHEET
L1I-total_access : 14927253
L1I-total_hit : 14000195
L1I-total_miss : 927058
L1I-load_access : 9442556
L1I-load_hit : 9204285
L1I-load_miss : 238271
L1I-rfo_access : 0
L1I-rfo_hit : 0
L1I-rfo_miss : 0
L1I-prefetch_access : 5484697
L1I-prefetch_hit : 4795910
L1I-prefetch_miss : 688787
L1I-writeback_access : 0
L1I-writeback_hit : 0
L1I-writeback_miss : 0
L1I-prefetch_requested : 5842554
L1I-prefetch_issued : 5835221
L1I-prefetch_useful : 486682
L1I-prefetch_useless : 202144
L1I-Avg_miss_latency : 17.7715
L1I-Morteza_fill_l2_prefetches : 0

L2C TOTAL     ACCESS:    2106694  HIT:    1715192  MISS:     391502
L2C LOAD      ACCESS:     247370  HIT:     196453  MISS:      50917
L2C RFO       ACCESS:     232261  HIT:      26335  MISS:     205926
L2C PREFETCH  ACCESS:    1357756  HIT:    1224109  MISS:     133647
L2C WRITEBACK ACCESS:     269307  HIT:     268295  MISS:       1012
L2C PREFETCH  REQUESTED:    1332686  ISSUED:    1332399  USEFUL:      12184  USELESS:     121066
L2C AVERAGE MISS LATENCY: 168.683 cycles
L2C

SHEET
L2C-total_access : 2106694
L2C-total_hit : 1715192
L2C-total_miss : 391502
L2C-load_access : 247370
L2C-load_hit : 196453
L2C-load_miss : 50917
L2C-rfo_access : 232261
L2C-rfo_hit : 26335
L2C-rfo_miss : 205926
L2C-prefetch_access : 1357756
L2C-prefetch_hit : 1224109
L2C-prefetch_miss : 133647
L2C-writeback_access : 269307
L2C-writeback_hit : 268295
L2C-writeback_miss : 1012
L2C-prefetch_requested : 1332686
L2C-prefetch_issued : 1332399
L2C-prefetch_useful : 12184
L2C-prefetch_useless : 121066
L2C-Avg_miss_latency : 168.683
L2C-Morteza_fill_l2_prefetches : 403498

LLC TOTAL     ACCESS:     994699  HIT:     708941  MISS:     285758
LLC LOAD      ACCESS:      50791  HIT:      35670  MISS:      15121
LLC RFO       ACCESS:     205918  HIT:      34141  MISS:     171777
LLC PREFETCH  ACCESS:     514521  HIT:     416019  MISS:      98502
LLC WRITEBACK ACCESS:     223469  HIT:     223111  MISS:        358
LLC PREFETCH  REQUESTED:          0  ISSUED:          0  USEFUL:      12558  USELESS:      84801
LLC AVERAGE MISS LATENCY: 231.587 cycles
LLC

SHEET
LLC-total_access : 994699
LLC-total_hit : 708941
LLC-total_miss : 285758
LLC-load_access : 50791
LLC-load_hit : 35670
LLC-load_miss : 15121
LLC-rfo_access : 205918
LLC-rfo_hit : 34141
LLC-rfo_miss : 171777
LLC-prefetch_access : 514521
LLC-prefetch_hit : 416019
LLC-prefetch_miss : 98502
LLC-writeback_access : 223469
LLC-writeback_hit : 223111
LLC-writeback_miss : 358
LLC-prefetch_requested : 0
LLC-prefetch_issued : 0
LLC-prefetch_useful : 12558
LLC-prefetch_useless : 84801
LLC-Avg_miss_latency : 231.587
LLC-Morteza_fill_l2_prefetches : 348754

Major fault: 0 Minor fault: 5042



Printing Logs
statHeadFound: 963072
statHeadMissing: 1596403
statStreamBufferHit: 11464677
statPrefetchEntryFound: 5016321
statCompactorMatch: 11722279
statStreamTrackerLookup: 14024152
statRecord: 2301873
statGetPointer: 2559475
statEnqueuePrefetch: 13994146
statPrefetchQueueIsFull: 274
StreamBufferHitRate: 0.817495
Regions' size: 8258
next_region_correct: 1549268
next_region_wrong: 744329
next_region_correct_prediction: 0.675475
statStreamBufferLookups: 1009738944
statL1iLookups: 111953168
statCompactorLookups: 504869472
morteza: start

SHEET
mana_table_access_counter : 7318450
hobp_table_access_counter : 24461950
sab_access_counter : 16480998
srq_access_counter : 14761035

morteza: end
CPU 0 L1D next line prefetcher final stats

DRAM Statistics
 CHANNEL 0
 RQ ROW_BUFFER_HIT:      99584  ROW_BUFFER_MISS:     185811
 DBUS_CONGESTED:     258105
 WQ ROW_BUFFER_HIT:      59378  ROW_BUFFER_MISS:     119890  FULL:          0

 AVG_CONGESTED_CYCLE: 6

CPU 0 Branch Prediction Accuracy: 98.6631% MPKI: 2.66884 Average ROB Occupancy at Mispredict: 70.7812

Branch types
NOT_BRANCH: 40018743 80.0375%
BRANCH_DIRECT_JUMP: 370861 0.741722%
BRANCH_INDIRECT: 83252 0.166504%
BRANCH_CONDITIONAL: 7877431 15.7549%
BRANCH_DIRECT_CALL: 722313 1.44463%
BRANCH_INDIRECT_CALL: 101901 0.203802%
BRANCH_RETURN: 825355 1.65071%
BRANCH_OTHER: 0 0%

