Initialize SIGNATURE TABLE
ST_SET: 1
ST_WAY: 256
ST_TAG_BIT: 16
ST_TAG_MASK: ffff

Initialize PATTERN TABLE
PT_SET: 512
PT_WAY: 4
SIG_DELTA_BIT: 7
C_SIG_BIT: 4
C_DELTA_BIT: 4

Initialize PREFETCH FILTER
FILTER_SET: 1024
MANA initialize 
tds: 2 tdm: 2
size MANA SINGLE: 15.5 KB
size MANA NULTIPLE: 0 KB
size HOBPT: 0.703125 KB
size SRQ: 0.14502 KB
size SABs: 0.290039 KB
size prefetch queue: 0.453125 KB
total: 17.0913 KB

*** ChampSim Multicore Out-of-Order Simulator ***

Warmup Instructions: 50000000
Simulation Instructions: 50000000
Number of CPUs: 1
LLC sets: 2048
LLC ways: 16
Off-chip DRAM Size: 4096 MB Channels: 1 Width: 64-bit Data Rate: 3200 MT/s

CPU 0 runs /home/mbaradaran/ChampSim/dpc3_traces/server_004.champsimtrace.xz
CPU 0 L1D next line prefetcher
Heartbeat CPU 0 instructions: 10000002 cycles: 3229518 heartbeat IPC: 3.09644 cumulative IPC: 3.09644 (Simulation time: 0 hr 1 min 14 sec) 
Heartbeat CPU 0 instructions: 20000002 cycles: 6564688 heartbeat IPC: 2.99835 cumulative IPC: 3.0466 (Simulation time: 0 hr 2 min 30 sec) 
Heartbeat CPU 0 instructions: 30000000 cycles: 11682136 heartbeat IPC: 1.9541 cumulative IPC: 2.56802 (Simulation time: 0 hr 4 min 3 sec) 
Heartbeat CPU 0 instructions: 40000003 cycles: 15430569 heartbeat IPC: 2.66778 cumulative IPC: 2.59226 (Simulation time: 0 hr 5 min 25 sec) 
Heartbeat CPU 0 instructions: 50000003 cycles: 18659461 heartbeat IPC: 3.09704 cumulative IPC: 2.67961 (Simulation time: 0 hr 6 min 44 sec) 

Warmup complete CPU 0 instructions: 50000003 cycles: 18659461 (Simulation time: 0 hr 6 min 44 sec) 

Heartbeat CPU 0 instructions: 60000002 cycles: 28001589 heartbeat IPC: 1.07042 cumulative IPC: 1.07042 (Simulation time: 0 hr 7 min 58 sec) 
Heartbeat CPU 0 instructions: 70000000 cycles: 36820150 heartbeat IPC: 1.13397 cumulative IPC: 1.10128 (Simulation time: 0 hr 9 min 6 sec) 
Heartbeat CPU 0 instructions: 80000001 cycles: 57999883 heartbeat IPC: 0.47215 cumulative IPC: 0.762574 (Simulation time: 0 hr 11 min 5 sec) 
Heartbeat CPU 0 instructions: 90000003 cycles: 73456099 heartbeat IPC: 0.646989 cumulative IPC: 0.729972 (Simulation time: 0 hr 12 min 30 sec) 
Heartbeat CPU 0 instructions: 100000003 cycles: 82981419 heartbeat IPC: 1.04983 cumulative IPC: 0.77734 (Simulation time: 0 hr 13 min 42 sec) 
Finished CPU 0 instructions: 50000000 cycles: 64321958 cumulative IPC: 0.77734 (Simulation time: 0 hr 13 min 42 sec) 

ChampSim completed all CPUs

Region of Interest Statistics

CPU 0 cumulative IPC: 0.77734 instructions: 50000000 cycles: 64321958

SHEET
IPC : 0.77734

L1D TOTAL     ACCESS:   21834788  HIT:   17763408  MISS:    4071380
L1D LOAD      ACCESS:    8695353  HIT:    6679064  MISS:    2016289
L1D RFO       ACCESS:    4650609  HIT:    4543704  MISS:     106905
L1D PREFETCH  ACCESS:    8488826  HIT:    6540640  MISS:    1948186
L1D WRITEBACK ACCESS:          0  HIT:          0  MISS:          0
L1D PREFETCH  REQUESTED:    8731419  ISSUED:    8641405  USEFUL:     108412  USELESS:    1839764
L1D AVERAGE MISS LATENCY: 22.7891 cycles
L1D

SHEET
L1D-total_access : 21834788
L1D-total_hit : 17763408
L1D-total_miss : 4071380
L1D-load_access : 8695353
L1D-load_hit : 6679064
L1D-load_miss : 2016289
L1D-rfo_access : 4650609
L1D-rfo_hit : 4543704
L1D-rfo_miss : 106905
L1D-prefetch_access : 8488826
L1D-prefetch_hit : 6540640
L1D-prefetch_miss : 1948186
L1D-writeback_access : 0
L1D-writeback_hit : 0
L1D-writeback_miss : 0
L1D-prefetch_requested : 8731419
L1D-prefetch_issued : 8641405
L1D-prefetch_useful : 108412
L1D-prefetch_useless : 1839764
L1D-Avg_miss_latency : 22.7891
L1D-Morteza_fill_l2_prefetches : 0

L1I TOTAL     ACCESS:   15446769  HIT:   13807641  MISS:    1639128
L1I LOAD      ACCESS:   10671373  HIT:   10264214  MISS:     407159
L1I RFO       ACCESS:          0  HIT:          0  MISS:          0
L1I PREFETCH  ACCESS:    4775396  HIT:    3543427  MISS:    1231969
L1I WRITEBACK ACCESS:          0  HIT:          0  MISS:          0
L1I PREFETCH  REQUESTED:    5122017  ISSUED:    5106442  USEFUL:     788881  USELESS:     443064
L1I AVERAGE MISS LATENCY: 30.1975 cycles
L1I

SHEET
L1I-total_access : 15446769
L1I-total_hit : 13807641
L1I-total_miss : 1639128
L1I-load_access : 10671373
L1I-load_hit : 10264214
L1I-load_miss : 407159
L1I-rfo_access : 0
L1I-rfo_hit : 0
L1I-rfo_miss : 0
L1I-prefetch_access : 4775396
L1I-prefetch_hit : 3543427
L1I-prefetch_miss : 1231969
L1I-writeback_access : 0
L1I-writeback_hit : 0
L1I-writeback_miss : 0
L1I-prefetch_requested : 5122017
L1I-prefetch_issued : 5106442
L1I-prefetch_useful : 788881
L1I-prefetch_useless : 443064
L1I-Avg_miss_latency : 30.1975
L1I-Morteza_fill_l2_prefetches : 0

L2C TOTAL     ACCESS:    7264546  HIT:    6209749  MISS:    1054797
L2C LOAD      ACCESS:    2281371  HIT:    1925383  MISS:     355988
L2C RFO       ACCESS:     105616  HIT:      56726  MISS:      48890
L2C PREFETCH  ACCESS:    4632524  HIT:    3984056  MISS:     648468
L2C WRITEBACK ACCESS:     245035  HIT:     243584  MISS:       1451
L2C PREFETCH  REQUESTED:    6998974  ISSUED:    6997280  USEFUL:      48096  USELESS:     599680
L2C AVERAGE MISS LATENCY: 55.8227 cycles
L2C

SHEET
L2C-total_access : 7264546
L2C-total_hit : 6209749
L2C-total_miss : 1054797
L2C-load_access : 2281371
L2C-load_hit : 1925383
L2C-load_miss : 355988
L2C-rfo_access : 105616
L2C-rfo_hit : 56726
L2C-rfo_miss : 48890
L2C-prefetch_access : 4632524
L2C-prefetch_hit : 3984056
L2C-prefetch_miss : 648468
L2C-writeback_access : 245035
L2C-writeback_hit : 243584
L2C-writeback_miss : 1451
L2C-prefetch_requested : 6998974
L2C-prefetch_issued : 6997280
L2C-prefetch_useful : 48096
L2C-prefetch_useless : 599680
L2C-Avg_miss_latency : 55.8227
L2C-Morteza_fill_l2_prefetches : 1310298

LLC TOTAL     ACCESS:    2523834  HIT:    2292949  MISS:     230885
LLC LOAD      ACCESS:     354083  HIT:     300615  MISS:      53468
LLC RFO       ACCESS:      48887  HIT:      33412  MISS:      15475
LLC PREFETCH  ACCESS:    1979902  HIT:    1818265  MISS:     161637
LLC WRITEBACK ACCESS:     140962  HIT:     140657  MISS:        305
LLC PREFETCH  REQUESTED:          0  ISSUED:          0  USEFUL:      26258  USELESS:     134907
LLC AVERAGE MISS LATENCY: 169.439 cycles
LLC

SHEET
LLC-total_access : 2523834
LLC-total_hit : 2292949
LLC-total_miss : 230885
LLC-load_access : 354083
LLC-load_hit : 300615
LLC-load_miss : 53468
LLC-rfo_access : 48887
LLC-rfo_hit : 33412
LLC-rfo_miss : 15475
LLC-prefetch_access : 1979902
LLC-prefetch_hit : 1818265
LLC-prefetch_miss : 161637
LLC-writeback_access : 140962
LLC-writeback_hit : 140657
LLC-writeback_miss : 305
LLC-prefetch_requested : 0
LLC-prefetch_issued : 0
LLC-prefetch_useful : 26258
LLC-prefetch_useless : 134907
LLC-Avg_miss_latency : 169.439
LLC-Morteza_fill_l2_prefetches : 1275173

Major fault: 0 Minor fault: 7592



Printing Logs
statHeadFound: 481945
statHeadMissing: 1476239
statStreamBufferHit: 13383268
statPrefetchEntryFound: 3152067
statCompactorMatch: 13480664
statStreamTrackerLookup: 15341452
statRecord: 1860788
statGetPointer: 1958184
statEnqueuePrefetch: 10111297
statPrefetchQueueIsFull: 2192
StreamBufferHitRate: 0.87236
Regions' size: 8641
next_region_correct: 1512930
next_region_wrong: 339199
next_region_correct_prediction: 0.81686
statStreamBufferLookups: 1104584544
statL1iLookups: 80890376
statCompactorLookups: 552292272
morteza: start

SHEET
mana_table_access_counter : 5015029
hobp_table_access_counter : 18430162
sab_access_counter : 16535335
srq_access_counter : 14062718

morteza: end
CPU 0 L1D next line prefetcher final stats

DRAM Statistics
 CHANNEL 0
 RQ ROW_BUFFER_HIT:      47627  ROW_BUFFER_MISS:     182930
 DBUS_CONGESTED:      96159
 WQ ROW_BUFFER_HIT:      11655  ROW_BUFFER_MISS:      43758  FULL:          0

 AVG_CONGESTED_CYCLE: 5

CPU 0 Branch Prediction Accuracy: 98.1603% MPKI: 3.89124 Average ROB Occupancy at Mispredict: 58.9423

Branch types
NOT_BRANCH: 39423755 78.8475%
BRANCH_DIRECT_JUMP: 551642 1.10328%
BRANCH_INDIRECT: 139368 0.278736%
BRANCH_CONDITIONAL: 7920858 15.8417%
BRANCH_DIRECT_CALL: 776072 1.55214%
BRANCH_INDIRECT_CALL: 194644 0.389288%
BRANCH_RETURN: 993311 1.98662%
BRANCH_OTHER: 0 0%

