Initialize SIGNATURE TABLE
ST_SET: 1
ST_WAY: 256
ST_TAG_BIT: 16
ST_TAG_MASK: ffff

Initialize PATTERN TABLE
PT_SET: 512
PT_WAY: 4
SIG_DELTA_BIT: 7
C_SIG_BIT: 4
C_DELTA_BIT: 4

Initialize PREFETCH FILTER
FILTER_SET: 1024
MANA initialize 
tds: 2 tdm: 2
size MANA SINGLE: 15.5 KB
size MANA NULTIPLE: 0 KB
size HOBPT: 0.703125 KB
size SRQ: 0.14502 KB
size SABs: 0.290039 KB
size prefetch queue: 0.453125 KB
total: 17.0913 KB

*** ChampSim Multicore Out-of-Order Simulator ***

Warmup Instructions: 50000000
Simulation Instructions: 50000000
Number of CPUs: 1
LLC sets: 2048
LLC ways: 16
Off-chip DRAM Size: 4096 MB Channels: 1 Width: 64-bit Data Rate: 3200 MT/s

CPU 0 runs /home/mbaradaran/ChampSim/dpc3_traces/server_039.champsimtrace.xz
CPU 0 L1D next line prefetcher
Heartbeat CPU 0 instructions: 10000003 cycles: 3451744 heartbeat IPC: 2.89709 cumulative IPC: 2.89709 (Simulation time: 0 hr 1 min 28 sec) 
Heartbeat CPU 0 instructions: 20000002 cycles: 6896419 heartbeat IPC: 2.90303 cumulative IPC: 2.90006 (Simulation time: 0 hr 2 min 53 sec) 
Heartbeat CPU 0 instructions: 30000001 cycles: 10342960 heartbeat IPC: 2.90146 cumulative IPC: 2.90052 (Simulation time: 0 hr 4 min 21 sec) 
Heartbeat CPU 0 instructions: 40000002 cycles: 13784847 heartbeat IPC: 2.90538 cumulative IPC: 2.90174 (Simulation time: 0 hr 5 min 41 sec) 
Heartbeat CPU 0 instructions: 50000001 cycles: 17226099 heartbeat IPC: 2.90592 cumulative IPC: 2.90257 (Simulation time: 0 hr 7 min 7 sec) 

Warmup complete CPU 0 instructions: 50000001 cycles: 17226099 (Simulation time: 0 hr 7 min 7 sec) 

Heartbeat CPU 0 instructions: 60000000 cycles: 23486181 heartbeat IPC: 1.59742 cumulative IPC: 1.59742 (Simulation time: 0 hr 8 min 10 sec) 
Heartbeat CPU 0 instructions: 70000000 cycles: 29741727 heartbeat IPC: 1.59858 cumulative IPC: 1.598 (Simulation time: 0 hr 9 min 11 sec) 
Heartbeat CPU 0 instructions: 80000000 cycles: 36009521 heartbeat IPC: 1.59546 cumulative IPC: 1.59715 (Simulation time: 0 hr 10 min 13 sec) 
Heartbeat CPU 0 instructions: 90000001 cycles: 42267987 heartbeat IPC: 1.59784 cumulative IPC: 1.59732 (Simulation time: 0 hr 11 min 15 sec) 
Heartbeat CPU 0 instructions: 100000002 cycles: 48526655 heartbeat IPC: 1.59778 cumulative IPC: 1.59742 (Simulation time: 0 hr 12 min 14 sec) 
Finished CPU 0 instructions: 50000001 cycles: 31300556 cumulative IPC: 1.59742 (Simulation time: 0 hr 12 min 14 sec) 

ChampSim completed all CPUs

Region of Interest Statistics

CPU 0 cumulative IPC: 1.59742 instructions: 50000001 cycles: 31300556

SHEET
IPC : 1.59742

L1D TOTAL     ACCESS:   20634771  HIT:   20139960  MISS:     494811
L1D LOAD      ACCESS:    6845183  HIT:    6623450  MISS:     221733
L1D RFO       ACCESS:    7108879  HIT:    7040083  MISS:      68796
L1D PREFETCH  ACCESS:    6680709  HIT:    6476427  MISS:     204282
L1D WRITEBACK ACCESS:          0  HIT:          0  MISS:          0
L1D PREFETCH  REQUESTED:    6860960  ISSUED:    6754153  USEFUL:      48211  USELESS:     156075
L1D AVERAGE MISS LATENCY: 14.9562 cycles
L1D

SHEET
L1D-total_access : 20634771
L1D-total_hit : 20139960
L1D-total_miss : 494811
L1D-load_access : 6845183
L1D-load_hit : 6623450
L1D-load_miss : 221733
L1D-rfo_access : 7108879
L1D-rfo_hit : 7040083
L1D-rfo_miss : 68796
L1D-prefetch_access : 6680709
L1D-prefetch_hit : 6476427
L1D-prefetch_miss : 204282
L1D-writeback_access : 0
L1D-writeback_hit : 0
L1D-writeback_miss : 0
L1D-prefetch_requested : 6860960
L1D-prefetch_issued : 6754153
L1D-prefetch_useful : 48211
L1D-prefetch_useless : 156075
L1D-Avg_miss_latency : 14.9562
L1D-Morteza_fill_l2_prefetches : 0

L1I TOTAL     ACCESS:   16632222  HIT:   11968521  MISS:    4663701
L1I LOAD      ACCESS:    9153945  HIT:    8257217  MISS:     896728
L1I RFO       ACCESS:          0  HIT:          0  MISS:          0
L1I PREFETCH  ACCESS:    7478277  HIT:    3711304  MISS:    3766973
L1I WRITEBACK ACCESS:          0  HIT:          0  MISS:          0
L1I PREFETCH  REQUESTED:    8321761  ISSUED:    8321761  USEFUL:    3177942  USELESS:     589019
L1I AVERAGE MISS LATENCY: 13.5826 cycles
L1I

SHEET
L1I-total_access : 16632222
L1I-total_hit : 11968521
L1I-total_miss : 4663701
L1I-load_access : 9153945
L1I-load_hit : 8257217
L1I-load_miss : 896728
L1I-rfo_access : 0
L1I-rfo_hit : 0
L1I-rfo_miss : 0
L1I-prefetch_access : 7478277
L1I-prefetch_hit : 3711304
L1I-prefetch_miss : 3766973
L1I-writeback_access : 0
L1I-writeback_hit : 0
L1I-writeback_miss : 0
L1I-prefetch_requested : 8321761
L1I-prefetch_issued : 8321761
L1I-prefetch_useful : 3177942
L1I-prefetch_useless : 589019
L1I-Avg_miss_latency : 13.5826
L1I-Morteza_fill_l2_prefetches : 0

L2C TOTAL     ACCESS:    7204433  HIT:    7204377  MISS:         56
L2C LOAD      ACCESS:     743468  HIT:     743465  MISS:          3
L2C RFO       ACCESS:      66781  HIT:      66781  MISS:          0
L2C PREFETCH  ACCESS:    6214143  HIT:    6214090  MISS:         53
L2C WRITEBACK ACCESS:     180041  HIT:     180041  MISS:          0
L2C PREFETCH  REQUESTED:    5348543  ISSUED:    5348496  USEFUL:          1  USELESS:          1
L2C AVERAGE MISS LATENCY: 43.9464 cycles
L2C

SHEET
L2C-total_access : 7204433
L2C-total_hit : 7204377
L2C-total_miss : 56
L2C-load_access : 743468
L2C-load_hit : 743465
L2C-load_miss : 3
L2C-rfo_access : 66781
L2C-rfo_hit : 66781
L2C-rfo_miss : 0
L2C-prefetch_access : 6214143
L2C-prefetch_hit : 6214090
L2C-prefetch_miss : 53
L2C-writeback_access : 180041
L2C-writeback_hit : 180041
L2C-writeback_miss : 0
L2C-prefetch_requested : 5348543
L2C-prefetch_issued : 5348496
L2C-prefetch_useful : 1
L2C-prefetch_useless : 1
L2C-Avg_miss_latency : 43.9464
L2C-Morteza_fill_l2_prefetches : 1889519

LLC TOTAL     ACCESS:     891489  HIT:     891190  MISS:        299
LLC LOAD      ACCESS:          3  HIT:          2  MISS:          1
LLC RFO       ACCESS:          0  HIT:          0  MISS:          0
LLC PREFETCH  ACCESS:     891486  HIT:     891188  MISS:        298
LLC WRITEBACK ACCESS:          0  HIT:          0  MISS:          0
LLC PREFETCH  REQUESTED:          0  ISSUED:          0  USEFUL:          2  USELESS:          0
LLC AVERAGE MISS LATENCY: 178.605 cycles
LLC

SHEET
LLC-total_access : 891489
LLC-total_hit : 891190
LLC-total_miss : 299
LLC-load_access : 3
LLC-load_hit : 2
LLC-load_miss : 1
LLC-rfo_access : 0
LLC-rfo_hit : 0
LLC-rfo_miss : 0
LLC-prefetch_access : 891486
LLC-prefetch_hit : 891188
LLC-prefetch_miss : 298
LLC-writeback_access : 0
LLC-writeback_hit : 0
LLC-writeback_miss : 0
LLC-prefetch_requested : 0
LLC-prefetch_issued : 0
LLC-prefetch_useful : 2
LLC-prefetch_useless : 0
LLC-Avg_miss_latency : 178.605
LLC-Morteza_fill_l2_prefetches : 891188

Major fault: 0 Minor fault: 356



Printing Logs
statHeadFound: 896351
statHeadMissing: 528327
statStreamBufferHit: 12775108
statPrefetchEntryFound: 5397630
statCompactorMatch: 11015223
statStreamTrackerLookup: 14199786
statRecord: 3184563
statGetPointer: 1424678
statEnqueuePrefetch: 16690652
statPrefetchQueueIsFull: 0
StreamBufferHitRate: 0.899669
Regions' size: 739
next_region_correct: 2470491
next_region_wrong: 713315
next_region_correct_prediction: 0.775955
statStreamBufferLookups: 1022384592
statL1iLookups: 133525216
statCompactorLookups: 511192296
morteza: start

SHEET
mana_table_access_counter : 8582175
hobp_table_access_counter : 23834542
sab_access_counter : 18172738
srq_access_counter : 16640120

morteza: end
CPU 0 L1D next line prefetcher final stats

DRAM Statistics
 CHANNEL 0
 RQ ROW_BUFFER_HIT:         59  ROW_BUFFER_MISS:        240
 DBUS_CONGESTED:         69
 WQ ROW_BUFFER_HIT:          0  ROW_BUFFER_MISS:          0  FULL:          0

 AVG_CONGESTED_CYCLE: 5

CPU 0 Branch Prediction Accuracy: 99.9091% MPKI: 0.1547 Average ROB Occupancy at Mispredict: 157.748

Branch types
NOT_BRANCH: 41494930 82.9899%
BRANCH_DIRECT_JUMP: 491308 0.982616%
BRANCH_INDIRECT: 0 0%
BRANCH_CONDITIONAL: 5595248 11.1905%
BRANCH_DIRECT_CALL: 1028408 2.05682%
BRANCH_INDIRECT_CALL: 180756 0.361512%
BRANCH_RETURN: 1209170 2.41834%
BRANCH_OTHER: 0 0%

