Initialize SIGNATURE TABLE
ST_SET: 1
ST_WAY: 256
ST_TAG_BIT: 16
ST_TAG_MASK: ffff

Initialize PATTERN TABLE
PT_SET: 512
PT_WAY: 4
SIG_DELTA_BIT: 7
C_SIG_BIT: 4
C_DELTA_BIT: 4

Initialize PREFETCH FILTER
FILTER_SET: 1024
MANA initialize 
tds: 2 tdm: 2
size MANA SINGLE: 15.5 KB
size MANA NULTIPLE: 0 KB
size HOBPT: 0.703125 KB
size SRQ: 0.14502 KB
size SABs: 0.290039 KB
size prefetch queue: 0.453125 KB
total: 17.0913 KB

*** ChampSim Multicore Out-of-Order Simulator ***

Warmup Instructions: 50000000
Simulation Instructions: 50000000
Number of CPUs: 1
LLC sets: 2048
LLC ways: 16
Off-chip DRAM Size: 4096 MB Channels: 1 Width: 64-bit Data Rate: 3200 MT/s

CPU 0 runs /home/mbaradaran/ChampSim/dpc3_traces/server_037.champsimtrace.xz
CPU 0 L1D next line prefetcher
Heartbeat CPU 0 instructions: 10000001 cycles: 3322081 heartbeat IPC: 3.01016 cumulative IPC: 3.01016 (Simulation time: 0 hr 1 min 26 sec) 
Heartbeat CPU 0 instructions: 20000002 cycles: 6641653 heartbeat IPC: 3.01244 cumulative IPC: 3.0113 (Simulation time: 0 hr 2 min 53 sec) 
Heartbeat CPU 0 instructions: 30000003 cycles: 10008686 heartbeat IPC: 2.96997 cumulative IPC: 2.9974 (Simulation time: 0 hr 4 min 14 sec) 
Heartbeat CPU 0 instructions: 40000000 cycles: 13329723 heartbeat IPC: 3.01111 cumulative IPC: 3.00081 (Simulation time: 0 hr 5 min 42 sec) 
Heartbeat CPU 0 instructions: 50000003 cycles: 16650071 heartbeat IPC: 3.01173 cumulative IPC: 3.00299 (Simulation time: 0 hr 7 min 10 sec) 

Warmup complete CPU 0 instructions: 50000003 cycles: 16650071 (Simulation time: 0 hr 7 min 10 sec) 

Heartbeat CPU 0 instructions: 60000001 cycles: 23105435 heartbeat IPC: 1.5491 cumulative IPC: 1.5491 (Simulation time: 0 hr 8 min 30 sec) 
Heartbeat CPU 0 instructions: 70000000 cycles: 29649636 heartbeat IPC: 1.52807 cumulative IPC: 1.53851 (Simulation time: 0 hr 9 min 47 sec) 
Heartbeat CPU 0 instructions: 80000000 cycles: 36082926 heartbeat IPC: 1.55441 cumulative IPC: 1.54378 (Simulation time: 0 hr 11 min 3 sec) 
Heartbeat CPU 0 instructions: 90000002 cycles: 42540394 heartbeat IPC: 1.54859 cumulative IPC: 1.54498 (Simulation time: 0 hr 12 min 19 sec) 
*** Reached end of trace for Core: 0 Repeating trace: /home/mbaradaran/ChampSim/dpc3_traces/server_037.champsimtrace.xz
Heartbeat CPU 0 instructions: 100000000 cycles: 49006423 heartbeat IPC: 1.54654 cumulative IPC: 1.54529 (Simulation time: 0 hr 13 min 33 sec) 
Finished CPU 0 instructions: 50000001 cycles: 32356353 cumulative IPC: 1.54529 (Simulation time: 0 hr 13 min 33 sec) 

ChampSim completed all CPUs

Region of Interest Statistics

CPU 0 cumulative IPC: 1.54529 instructions: 50000001 cycles: 32356353

SHEET
IPC : 1.54529

L1D TOTAL     ACCESS:   18831253  HIT:   17852988  MISS:     978265
L1D LOAD      ACCESS:    6430210  HIT:    5940262  MISS:     489948
L1D RFO       ACCESS:    6205815  HIT:    6141165  MISS:      64650
L1D PREFETCH  ACCESS:    6195228  HIT:    5771561  MISS:     423667
L1D WRITEBACK ACCESS:          0  HIT:          0  MISS:          0
L1D PREFETCH  REQUESTED:    6466707  ISSUED:    6314805  USEFUL:     118357  USELESS:     305315
L1D AVERAGE MISS LATENCY: 28.776 cycles
L1D

SHEET
L1D-total_access : 18831253
L1D-total_hit : 17852988
L1D-total_miss : 978265
L1D-load_access : 6430210
L1D-load_hit : 5940262
L1D-load_miss : 489948
L1D-rfo_access : 6205815
L1D-rfo_hit : 6141165
L1D-rfo_miss : 64650
L1D-prefetch_access : 6195228
L1D-prefetch_hit : 5771561
L1D-prefetch_miss : 423667
L1D-writeback_access : 0
L1D-writeback_hit : 0
L1D-writeback_miss : 0
L1D-prefetch_requested : 6466707
L1D-prefetch_issued : 6314805
L1D-prefetch_useful : 118357
L1D-prefetch_useless : 305315
L1D-Avg_miss_latency : 28.776
L1D-Morteza_fill_l2_prefetches : 0

L1I TOTAL     ACCESS:   16194312  HIT:   11659434  MISS:    4534878
L1I LOAD      ACCESS:    9205938  HIT:    8376040  MISS:     829898
L1I RFO       ACCESS:          0  HIT:          0  MISS:          0
L1I PREFETCH  ACCESS:    6988374  HIT:    3283394  MISS:    3704980
L1I WRITEBACK ACCESS:          0  HIT:          0  MISS:          0
L1I PREFETCH  REQUESTED:    7802527  ISSUED:    7802527  USEFUL:    3201329  USELESS:     503670
L1I AVERAGE MISS LATENCY: 13.6543 cycles
L1I

SHEET
L1I-total_access : 16194312
L1I-total_hit : 11659434
L1I-total_miss : 4534878
L1I-load_access : 9205938
L1I-load_hit : 8376040
L1I-load_miss : 829898
L1I-rfo_access : 0
L1I-rfo_hit : 0
L1I-rfo_miss : 0
L1I-prefetch_access : 6988374
L1I-prefetch_hit : 3283394
L1I-prefetch_miss : 3704980
L1I-writeback_access : 0
L1I-writeback_hit : 0
L1I-writeback_miss : 0
L1I-prefetch_requested : 7802527
L1I-prefetch_issued : 7802527
L1I-prefetch_useful : 3201329
L1I-prefetch_useless : 503670
L1I-Avg_miss_latency : 13.6543
L1I-Morteza_fill_l2_prefetches : 0

L2C TOTAL     ACCESS:    8170763  HIT:    7865941  MISS:     304822
L2C LOAD      ACCESS:     896079  HIT:     758875  MISS:     137204
L2C RFO       ACCESS:      64400  HIT:      37661  MISS:      26739
L2C PREFETCH  ACCESS:    6920787  HIT:    6780812  MISS:     139975
L2C WRITEBACK ACCESS:     289497  HIT:     288593  MISS:        904
L2C PREFETCH  REQUESTED:    6889915  ISSUED:    6870113  USEFUL:       6499  USELESS:     133295
L2C AVERAGE MISS LATENCY: 45.6482 cycles
L2C

SHEET
L2C-total_access : 8170763
L2C-total_hit : 7865941
L2C-total_miss : 304822
L2C-load_access : 896079
L2C-load_hit : 758875
L2C-load_miss : 137204
L2C-rfo_access : 64400
L2C-rfo_hit : 37661
L2C-rfo_miss : 26739
L2C-prefetch_access : 6920787
L2C-prefetch_hit : 6780812
L2C-prefetch_miss : 139975
L2C-writeback_access : 289497
L2C-writeback_hit : 288593
L2C-writeback_miss : 904
L2C-prefetch_requested : 6889915
L2C-prefetch_issued : 6870113
L2C-prefetch_useful : 6499
L2C-prefetch_useless : 133295
L2C-Avg_miss_latency : 45.6482
L2C-Morteza_fill_l2_prefetches : 2382227

LLC TOTAL     ACCESS:    1517430  HIT:    1469161  MISS:      48269
LLC LOAD      ACCESS:     137173  HIT:     124138  MISS:      13035
LLC RFO       ACCESS:      26734  HIT:      22419  MISS:       4315
LLC PREFETCH  ACCESS:    1217792  HIT:    1187369  MISS:      30423
LLC WRITEBACK ACCESS:     135731  HIT:     135235  MISS:        496
LLC PREFETCH  REQUESTED:          0  ISSUED:          0  USEFUL:       3752  USELESS:      26334
LLC AVERAGE MISS LATENCY: 163.853 cycles
LLC

SHEET
LLC-total_access : 1517430
LLC-total_hit : 1469161
LLC-total_miss : 48269
LLC-load_access : 137173
LLC-load_hit : 124138
LLC-load_miss : 13035
LLC-rfo_access : 26734
LLC-rfo_hit : 22419
LLC-rfo_miss : 4315
LLC-prefetch_access : 1217792
LLC-prefetch_hit : 1187369
LLC-prefetch_miss : 30423
LLC-writeback_access : 135731
LLC-writeback_hit : 135235
LLC-writeback_miss : 496
LLC-prefetch_requested : 0
LLC-prefetch_issued : 0
LLC-prefetch_useful : 3752
LLC-prefetch_useless : 26334
LLC-Avg_miss_latency : 163.853
LLC-Morteza_fill_l2_prefetches : 1064668

Major fault: 0 Minor fault: 5652



Printing Logs
statHeadFound: 705196
statHeadMissing: 303320
statStreamBufferHit: 13514000
statPrefetchEntryFound: 4935157
statCompactorMatch: 11287588
statStreamTrackerLookup: 14522516
statRecord: 3234928
statGetPointer: 1008516
statEnqueuePrefetch: 15542574
statPrefetchQueueIsFull: 0
StreamBufferHitRate: 0.930555
Regions' size: 1137
next_region_correct: 2550998
next_region_wrong: 682775
next_region_correct_prediction: 0.788861
statStreamBufferLookups: 1045621152
statL1iLookups: 124340592
statCompactorLookups: 522810576
morteza: start

SHEET
mana_table_access_counter : 8170067
hobp_table_access_counter : 21908894
sab_access_counter : 18449157
srq_access_counter : 16680018

morteza: end
CPU 0 L1D next line prefetcher final stats

DRAM Statistics
 CHANNEL 0
 RQ ROW_BUFFER_HIT:       7784  ROW_BUFFER_MISS:      39989
 DBUS_CONGESTED:      20670
 WQ ROW_BUFFER_HIT:       1133  ROW_BUFFER_MISS:      10336  FULL:          0

 AVG_CONGESTED_CYCLE: 4

CPU 0 Branch Prediction Accuracy: 99.913% MPKI: 0.15656 Average ROB Occupancy at Mispredict: 159.167

Branch types
NOT_BRANCH: 41001716 82.0034%
BRANCH_DIRECT_JUMP: 541941 1.08388%
BRANCH_INDIRECT: 59716 0.119432%
BRANCH_CONDITIONAL: 5916850 11.8337%
BRANCH_DIRECT_CALL: 1005465 2.01093%
BRANCH_INDIRECT_CALL: 234433 0.468866%
BRANCH_RETURN: 1239877 2.47975%
BRANCH_OTHER: 0 0%

