Initialize SIGNATURE TABLE
ST_SET: 1
ST_WAY: 256
ST_TAG_BIT: 16
ST_TAG_MASK: ffff

Initialize PATTERN TABLE
PT_SET: 512
PT_WAY: 4
SIG_DELTA_BIT: 7
C_SIG_BIT: 4
C_DELTA_BIT: 4

Initialize PREFETCH FILTER
FILTER_SET: 1024
MANA initialize 
tds: 2 tdm: 2
size MANA SINGLE: 15.5 KB
size MANA NULTIPLE: 0 KB
size HOBPT: 0.703125 KB
size SRQ: 0.14502 KB
size SABs: 0.290039 KB
size prefetch queue: 0.453125 KB
total: 17.0913 KB

*** ChampSim Multicore Out-of-Order Simulator ***

Warmup Instructions: 50000000
Simulation Instructions: 50000000
Number of CPUs: 1
LLC sets: 2048
LLC ways: 16
Off-chip DRAM Size: 4096 MB Channels: 1 Width: 64-bit Data Rate: 3200 MT/s

CPU 0 runs /home/mbaradaran/ChampSim/dpc3_traces/server_017.champsimtrace.xz
CPU 0 L1D next line prefetcher
Heartbeat CPU 0 instructions: 10000001 cycles: 3623769 heartbeat IPC: 2.75956 cumulative IPC: 2.75956 (Simulation time: 0 hr 1 min 28 sec) 
Heartbeat CPU 0 instructions: 20000000 cycles: 7245437 heartbeat IPC: 2.76116 cumulative IPC: 2.76036 (Simulation time: 0 hr 2 min 58 sec) 
Heartbeat CPU 0 instructions: 30000002 cycles: 10873477 heartbeat IPC: 2.75631 cumulative IPC: 2.75901 (Simulation time: 0 hr 4 min 28 sec) 
Heartbeat CPU 0 instructions: 40000000 cycles: 14496639 heartbeat IPC: 2.76002 cumulative IPC: 2.75926 (Simulation time: 0 hr 5 min 57 sec) 
Heartbeat CPU 0 instructions: 50000001 cycles: 18131074 heartbeat IPC: 2.75146 cumulative IPC: 2.7577 (Simulation time: 0 hr 7 min 30 sec) 

Warmup complete CPU 0 instructions: 50000001 cycles: 18131074 (Simulation time: 0 hr 7 min 30 sec) 

Heartbeat CPU 0 instructions: 60000002 cycles: 35732781 heartbeat IPC: 0.568127 cumulative IPC: 0.568127 (Simulation time: 0 hr 9 min 32 sec) 
Heartbeat CPU 0 instructions: 70000002 cycles: 53432127 heartbeat IPC: 0.564993 cumulative IPC: 0.566555 (Simulation time: 0 hr 11 min 32 sec) 
Heartbeat CPU 0 instructions: 80000000 cycles: 70889200 heartbeat IPC: 0.572834 cumulative IPC: 0.568633 (Simulation time: 0 hr 13 min 31 sec) 
Heartbeat CPU 0 instructions: 90000002 cycles: 94296765 heartbeat IPC: 0.427212 cumulative IPC: 0.525171 (Simulation time: 0 hr 15 min 28 sec) 
Heartbeat CPU 0 instructions: 100000003 cycles: 114331654 heartbeat IPC: 0.499129 cumulative IPC: 0.519747 (Simulation time: 0 hr 17 min 32 sec) 
Finished CPU 0 instructions: 50000002 cycles: 96200580 cumulative IPC: 0.519747 (Simulation time: 0 hr 17 min 32 sec) 

ChampSim completed all CPUs

Region of Interest Statistics

CPU 0 cumulative IPC: 0.519747 instructions: 50000002 cycles: 96200580

SHEET
IPC : 0.519747

L1D TOTAL     ACCESS:   18428486  HIT:   16262847  MISS:    2165639
L1D LOAD      ACCESS:    7045023  HIT:    6301972  MISS:     743051
L1D RFO       ACCESS:    5518963  HIT:    4659736  MISS:     859227
L1D PREFETCH  ACCESS:    5864500  HIT:    5301139  MISS:     563361
L1D WRITEBACK ACCESS:          0  HIT:          0  MISS:          0
L1D PREFETCH  REQUESTED:    7084177  ISSUED:    6893955  USEFUL:     200921  USELESS:     362501
L1D AVERAGE MISS LATENCY: 173.507 cycles
L1D

SHEET
L1D-total_access : 18428486
L1D-total_hit : 16262847
L1D-total_miss : 2165639
L1D-load_access : 7045023
L1D-load_hit : 6301972
L1D-load_miss : 743051
L1D-rfo_access : 5518963
L1D-rfo_hit : 4659736
L1D-rfo_miss : 859227
L1D-prefetch_access : 5864500
L1D-prefetch_hit : 5301139
L1D-prefetch_miss : 563361
L1D-writeback_access : 0
L1D-writeback_hit : 0
L1D-writeback_miss : 0
L1D-prefetch_requested : 7084177
L1D-prefetch_issued : 6893955
L1D-prefetch_useful : 200921
L1D-prefetch_useless : 362501
L1D-Avg_miss_latency : 173.507
L1D-Morteza_fill_l2_prefetches : 0

L1I TOTAL     ACCESS:   14522093  HIT:   12246362  MISS:    2275731
L1I LOAD      ACCESS:    9774217  HIT:    9391173  MISS:     383044
L1I RFO       ACCESS:          0  HIT:          0  MISS:          0
L1I PREFETCH  ACCESS:    4747876  HIT:    2855189  MISS:    1892687
L1I WRITEBACK ACCESS:          0  HIT:          0  MISS:          0
L1I PREFETCH  REQUESTED:    5135003  ISSUED:    5134883  USEFUL:    1700474  USELESS:     192237
L1I AVERAGE MISS LATENCY: 16.3139 cycles
L1I

SHEET
L1I-total_access : 14522093
L1I-total_hit : 12246362
L1I-total_miss : 2275731
L1I-load_access : 9774217
L1I-load_hit : 9391173
L1I-load_miss : 383044
L1I-rfo_access : 0
L1I-rfo_hit : 0
L1I-rfo_miss : 0
L1I-prefetch_access : 4747876
L1I-prefetch_hit : 2855189
L1I-prefetch_miss : 1892687
L1I-writeback_access : 0
L1I-writeback_hit : 0
L1I-writeback_miss : 0
L1I-prefetch_requested : 5135003
L1I-prefetch_issued : 5134883
L1I-prefetch_useful : 1700474
L1I-prefetch_useless : 192237
L1I-Avg_miss_latency : 16.3139
L1I-Morteza_fill_l2_prefetches : 0

L2C TOTAL     ACCESS:    6564568  HIT:    4723579  MISS:    1840989
L2C LOAD      ACCESS:     694177  HIT:     359095  MISS:     335082
L2C RFO       ACCESS:     858729  HIT:      17354  MISS:     841375
L2C PREFETCH  ACCESS:    3888768  HIT:    3226512  MISS:     662256
L2C WRITEBACK ACCESS:    1122894  HIT:    1120618  MISS:       2276
L2C PREFETCH  REQUESTED:    4110573  ISSUED:    4106967  USEFUL:      26952  USELESS:     635781
L2C AVERAGE MISS LATENCY: 206.967 cycles
L2C

SHEET
L2C-total_access : 6564568
L2C-total_hit : 4723579
L2C-total_miss : 1840989
L2C-load_access : 694177
L2C-load_hit : 359095
L2C-load_miss : 335082
L2C-rfo_access : 858729
L2C-rfo_hit : 17354
L2C-rfo_miss : 841375
L2C-prefetch_access : 3888768
L2C-prefetch_hit : 3226512
L2C-prefetch_miss : 662256
L2C-writeback_access : 1122894
L2C-writeback_hit : 1120618
L2C-writeback_miss : 2276
L2C-prefetch_requested : 4110573
L2C-prefetch_issued : 4106967
L2C-prefetch_useful : 26952
L2C-prefetch_useless : 635781
L2C-Avg_miss_latency : 206.967
L2C-Morteza_fill_l2_prefetches : 1002614

LLC TOTAL     ACCESS:    4113108  HIT:    2553043  MISS:    1560065
LLC LOAD      ACCESS:     334995  HIT:     167145  MISS:     167850
LLC RFO       ACCESS:     841374  HIT:     122676  MISS:     718698
LLC PREFETCH  ACCESS:    1875394  HIT:    1204288  MISS:     671106
LLC WRITEBACK ACCESS:    1061345  HIT:    1058934  MISS:       2411
LLC PREFETCH  REQUESTED:          0  ISSUED:          0  USEFUL:      40877  USELESS:     629979
LLC AVERAGE MISS LATENCY: 260.127 cycles
LLC

SHEET
LLC-total_access : 4113108
LLC-total_hit : 2553043
LLC-total_miss : 1560065
LLC-load_access : 334995
LLC-load_hit : 167145
LLC-load_miss : 167850
LLC-rfo_access : 841374
LLC-rfo_hit : 122676
LLC-rfo_miss : 718698
LLC-prefetch_access : 1875394
LLC-prefetch_hit : 1204288
LLC-prefetch_miss : 671106
LLC-writeback_access : 1061345
LLC-writeback_hit : 1058934
LLC-writeback_miss : 2411
LLC-prefetch_requested : 0
LLC-prefetch_issued : 0
LLC-prefetch_useful : 40877
LLC-prefetch_useless : 629979
LLC-Avg_miss_latency : 260.127
LLC-Morteza_fill_l2_prefetches : 896762

Major fault: 0 Minor fault: 24694



Printing Logs
statHeadFound: 424851
statHeadMissing: 497310
statStreamBufferHit: 12297262
statPrefetchEntryFound: 3348701
statCompactorMatch: 10989249
statStreamTrackerLookup: 13219423
statRecord: 2230174
statGetPointer: 922161
statEnqueuePrefetch: 10714189
statPrefetchQueueIsFull: 0
StreamBufferHitRate: 0.930242
Regions' size: 1207
next_region_correct: 1874445
next_region_wrong: 354504
next_region_correct_prediction: 0.840955
statStreamBufferLookups: 951798456
statL1iLookups: 85713512
statCompactorLookups: 475899228
morteza: start

SHEET
mana_table_access_counter : 5578857
hobp_table_access_counter : 15958001
sab_access_counter : 15645963
srq_access_counter : 14361699

morteza: end
CPU 0 L1D next line prefetcher final stats

DRAM Statistics
 CHANNEL 0
 RQ ROW_BUFFER_HIT:     414868  ROW_BUFFER_MISS:    1142654
 DBUS_CONGESTED:    1476328
 WQ ROW_BUFFER_HIT:     259014  ROW_BUFFER_MISS:     619328  FULL:          0

 AVG_CONGESTED_CYCLE: 6

CPU 0 Branch Prediction Accuracy: 99.2833% MPKI: 1.20568 Average ROB Occupancy at Mispredict: 180.093

Branch types
NOT_BRANCH: 41588350 83.1767%
BRANCH_DIRECT_JUMP: 464501 0.929002%
BRANCH_INDIRECT: 45704 0.091408%
BRANCH_CONDITIONAL: 6147408 12.2948%
BRANCH_DIRECT_CALL: 675450 1.3509%
BRANCH_INDIRECT_CALL: 201532 0.403064%
BRANCH_RETURN: 876985 1.75397%
BRANCH_OTHER: 0 0%

