Initialize SIGNATURE TABLE
ST_SET: 1
ST_WAY: 256
ST_TAG_BIT: 16
ST_TAG_MASK: ffff

Initialize PATTERN TABLE
PT_SET: 512
PT_WAY: 4
SIG_DELTA_BIT: 7
C_SIG_BIT: 4
C_DELTA_BIT: 4

Initialize PREFETCH FILTER
FILTER_SET: 1024
MANA initialize 
tds: 2 tdm: 2
size MANA SINGLE: 15.5 KB
size MANA NULTIPLE: 0 KB
size HOBPT: 0.703125 KB
size SRQ: 0.14502 KB
size SABs: 0.290039 KB
size prefetch queue: 0.453125 KB
total: 17.0913 KB

*** ChampSim Multicore Out-of-Order Simulator ***

Warmup Instructions: 50000000
Simulation Instructions: 50000000
Number of CPUs: 1
LLC sets: 2048
LLC ways: 16
Off-chip DRAM Size: 4096 MB Channels: 1 Width: 64-bit Data Rate: 3200 MT/s

CPU 0 runs /home/mbaradaran/ChampSim/dpc3_traces/server_020.champsimtrace.xz
CPU 0 L1D next line prefetcher
Heartbeat CPU 0 instructions: 10000003 cycles: 3622251 heartbeat IPC: 2.76072 cumulative IPC: 2.76072 (Simulation time: 0 hr 1 min 22 sec) 
Heartbeat CPU 0 instructions: 20000002 cycles: 7248925 heartbeat IPC: 2.75735 cumulative IPC: 2.75903 (Simulation time: 0 hr 2 min 44 sec) 
Heartbeat CPU 0 instructions: 30000001 cycles: 10868618 heartbeat IPC: 2.76267 cumulative IPC: 2.76024 (Simulation time: 0 hr 4 min 13 sec) 
Heartbeat CPU 0 instructions: 40000002 cycles: 14489786 heartbeat IPC: 2.76154 cumulative IPC: 2.76057 (Simulation time: 0 hr 5 min 39 sec) 
Heartbeat CPU 0 instructions: 50000001 cycles: 18124248 heartbeat IPC: 2.75144 cumulative IPC: 2.75874 (Simulation time: 0 hr 7 min 6 sec) 

Warmup complete CPU 0 instructions: 50000001 cycles: 18124248 (Simulation time: 0 hr 7 min 6 sec) 

Heartbeat CPU 0 instructions: 60000003 cycles: 35789513 heartbeat IPC: 0.566083 cumulative IPC: 0.566083 (Simulation time: 0 hr 9 min 5 sec) 
Heartbeat CPU 0 instructions: 70000002 cycles: 53491063 heartbeat IPC: 0.564922 cumulative IPC: 0.565502 (Simulation time: 0 hr 11 min 3 sec) 
Heartbeat CPU 0 instructions: 80000002 cycles: 71077395 heartbeat IPC: 0.568623 cumulative IPC: 0.566539 (Simulation time: 0 hr 13 min 4 sec) 
Heartbeat CPU 0 instructions: 90000001 cycles: 88658941 heartbeat IPC: 0.568778 cumulative IPC: 0.567097 (Simulation time: 0 hr 15 min 0 sec) 
Heartbeat CPU 0 instructions: 100000002 cycles: 106228432 heartbeat IPC: 0.569169 cumulative IPC: 0.56751 (Simulation time: 0 hr 16 min 57 sec) 
Finished CPU 0 instructions: 50000001 cycles: 88104184 cumulative IPC: 0.56751 (Simulation time: 0 hr 16 min 57 sec) 

ChampSim completed all CPUs

Region of Interest Statistics

CPU 0 cumulative IPC: 0.56751 instructions: 50000001 cycles: 88104184

SHEET
IPC : 0.56751

L1D TOTAL     ACCESS:   18690090  HIT:   16485903  MISS:    2204187
L1D LOAD      ACCESS:    7067835  HIT:    6346685  MISS:     721150
L1D RFO       ACCESS:    5818078  HIT:    4872187  MISS:     945891
L1D PREFETCH  ACCESS:    5804177  HIT:    5267031  MISS:     537146
L1D WRITEBACK ACCESS:          0  HIT:          0  MISS:          0
L1D PREFETCH  REQUESTED:    7110016  ISSUED:    6909664  USEFUL:     197864  USELESS:     339201
L1D AVERAGE MISS LATENCY: 174.152 cycles
L1D

SHEET
L1D-total_access : 18690090
L1D-total_hit : 16485903
L1D-total_miss : 2204187
L1D-load_access : 7067835
L1D-load_hit : 6346685
L1D-load_miss : 721150
L1D-rfo_access : 5818078
L1D-rfo_hit : 4872187
L1D-rfo_miss : 945891
L1D-prefetch_access : 5804177
L1D-prefetch_hit : 5267031
L1D-prefetch_miss : 537146
L1D-writeback_access : 0
L1D-writeback_hit : 0
L1D-writeback_miss : 0
L1D-prefetch_requested : 7110016
L1D-prefetch_issued : 6909664
L1D-prefetch_useful : 197864
L1D-prefetch_useless : 339201
L1D-Avg_miss_latency : 174.152
L1D-Morteza_fill_l2_prefetches : 0

L1I TOTAL     ACCESS:   15203907  HIT:   12795007  MISS:    2408900
L1I LOAD      ACCESS:    9979439  HIT:    9560180  MISS:     419259
L1I RFO       ACCESS:          0  HIT:          0  MISS:          0
L1I PREFETCH  ACCESS:    5224468  HIT:    3234827  MISS:    1989641
L1I WRITEBACK ACCESS:          0  HIT:          0  MISS:          0
L1I PREFETCH  REQUESTED:    5636998  ISSUED:    5636679  USEFUL:    1775710  USELESS:     213929
L1I AVERAGE MISS LATENCY: 16.2397 cycles
L1I

SHEET
L1I-total_access : 15203907
L1I-total_hit : 12795007
L1I-total_miss : 2408900
L1I-load_access : 9979439
L1I-load_hit : 9560180
L1I-load_miss : 419259
L1I-rfo_access : 0
L1I-rfo_hit : 0
L1I-rfo_miss : 0
L1I-prefetch_access : 5224468
L1I-prefetch_hit : 3234827
L1I-prefetch_miss : 1989641
L1I-writeback_access : 0
L1I-writeback_hit : 0
L1I-writeback_miss : 0
L1I-prefetch_requested : 5636998
L1I-prefetch_issued : 5636679
L1I-prefetch_useful : 1775710
L1I-prefetch_useless : 213929
L1I-Avg_miss_latency : 16.2397
L1I-Morteza_fill_l2_prefetches : 0

L2C TOTAL     ACCESS:    6765291  HIT:    4912429  MISS:    1852862
L2C LOAD      ACCESS:     657169  HIT:     383474  MISS:     273695
L2C RFO       ACCESS:     945503  HIT:      20268  MISS:     925235
L2C PREFETCH  ACCESS:    3999051  HIT:    3347360  MISS:     651691
L2C WRITEBACK ACCESS:    1163568  HIT:    1161327  MISS:       2241
L2C PREFETCH  REQUESTED:    3927086  ISSUED:    3924185  USEFUL:      27016  USELESS:     623646
L2C AVERAGE MISS LATENCY: 212.583 cycles
L2C

SHEET
L2C-total_access : 6765291
L2C-total_hit : 4912429
L2C-total_miss : 1852862
L2C-load_access : 657169
L2C-load_hit : 383474
L2C-load_miss : 273695
L2C-rfo_access : 945503
L2C-rfo_hit : 20268
L2C-rfo_miss : 925235
L2C-prefetch_access : 3999051
L2C-prefetch_hit : 3347360
L2C-prefetch_miss : 651691
L2C-writeback_access : 1163568
L2C-writeback_hit : 1161327
L2C-writeback_miss : 2241
L2C-prefetch_requested : 3927086
L2C-prefetch_issued : 3924185
L2C-prefetch_useful : 27016
L2C-prefetch_useless : 623646
L2C-Avg_miss_latency : 212.583
L2C-Morteza_fill_l2_prefetches : 1004925

LLC TOTAL     ACCESS:    4065868  HIT:    2617190  MISS:    1448678
LLC LOAD      ACCESS:     273615  HIT:     170876  MISS:     102739
LLC RFO       ACCESS:     925229  HIT:     138017  MISS:     787212
LLC PREFETCH  ACCESS:    1770205  HIT:    1213440  MISS:     556765
LLC WRITEBACK ACCESS:    1096819  HIT:    1094857  MISS:       1962
LLC PREFETCH  REQUESTED:          0  ISSUED:          0  USEFUL:      32426  USELESS:     524223
LLC AVERAGE MISS LATENCY: 274.71 cycles
LLC

SHEET
LLC-total_access : 4065868
LLC-total_hit : 2617190
LLC-total_miss : 1448678
LLC-load_access : 273615
LLC-load_hit : 170876
LLC-load_miss : 102739
LLC-rfo_access : 925229
LLC-rfo_hit : 138017
LLC-rfo_miss : 787212
LLC-prefetch_access : 1770205
LLC-prefetch_hit : 1213440
LLC-prefetch_miss : 556765
LLC-writeback_access : 1096819
LLC-writeback_hit : 1094857
LLC-writeback_miss : 1962
LLC-prefetch_requested : 0
LLC-prefetch_issued : 0
LLC-prefetch_useful : 32426
LLC-prefetch_useless : 524223
LLC-Avg_miss_latency : 274.71
LLC-Morteza_fill_l2_prefetches : 890731

Major fault: 0 Minor fault: 22091



Printing Logs
statHeadFound: 451713
statHeadMissing: 1188620
statStreamBufferHit: 11817610
statPrefetchEntryFound: 3518528
statCompactorMatch: 11116417
statStreamTrackerLookup: 13457943
statRecord: 2341526
statGetPointer: 1640333
statEnqueuePrefetch: 11250556
statPrefetchQueueIsFull: 0
StreamBufferHitRate: 0.878114
Regions' size: 1113
next_region_correct: 1972245
next_region_wrong: 368150
next_region_correct_prediction: 0.842697
statStreamBufferLookups: 968971896
statL1iLookups: 90004448
statCompactorLookups: 484485948
morteza: start

SHEET
mana_table_access_counter : 5860036
hobp_table_access_counter : 19445924
sab_access_counter : 15336138
srq_access_counter : 14764005

morteza: end
CPU 0 L1D next line prefetcher final stats

DRAM Statistics
 CHANNEL 0
 RQ ROW_BUFFER_HIT:     407733  ROW_BUFFER_MISS:    1038698
 DBUS_CONGESTED:    1446055
 WQ ROW_BUFFER_HIT:     260896  ROW_BUFFER_MISS:     630030  FULL:          0

 AVG_CONGESTED_CYCLE: 6

CPU 0 Branch Prediction Accuracy: 99.712% MPKI: 0.47638 Average ROB Occupancy at Mispredict: 209.039

Branch types
NOT_BRANCH: 41729508 83.459%
BRANCH_DIRECT_JUMP: 458220 0.91644%
BRANCH_INDIRECT: 49088 0.098176%
BRANCH_CONDITIONAL: 5938530 11.8771%
BRANCH_DIRECT_CALL: 745131 1.49026%
BRANCH_INDIRECT_CALL: 167109 0.334218%
BRANCH_RETURN: 912222 1.82444%
BRANCH_OTHER: 0 0%

