Initialize SIGNATURE TABLE
ST_SET: 1
ST_WAY: 256
ST_TAG_BIT: 16
ST_TAG_MASK: ffff

Initialize PATTERN TABLE
PT_SET: 512
PT_WAY: 4
SIG_DELTA_BIT: 7
C_SIG_BIT: 4
C_DELTA_BIT: 4

Initialize PREFETCH FILTER
FILTER_SET: 1024
MANA initialize 
tds: 2 tdm: 2
size MANA SINGLE: 15.5 KB
size MANA NULTIPLE: 0 KB
size HOBPT: 0.703125 KB
size SRQ: 0.14502 KB
size SABs: 0.290039 KB
size prefetch queue: 0.453125 KB
total: 17.0913 KB

*** ChampSim Multicore Out-of-Order Simulator ***

Warmup Instructions: 50000000
Simulation Instructions: 50000000
Number of CPUs: 1
LLC sets: 2048
LLC ways: 16
Off-chip DRAM Size: 4096 MB Channels: 1 Width: 64-bit Data Rate: 3200 MT/s

CPU 0 runs /home/mbaradaran/ChampSim/dpc3_traces/server_028.champsimtrace.xz
CPU 0 L1D next line prefetcher
Heartbeat CPU 0 instructions: 10000001 cycles: 3500286 heartbeat IPC: 2.85691 cumulative IPC: 2.85691 (Simulation time: 0 hr 1 min 33 sec) 
Heartbeat CPU 0 instructions: 20000002 cycles: 7000979 heartbeat IPC: 2.85658 cumulative IPC: 2.85674 (Simulation time: 0 hr 2 min 59 sec) 
Heartbeat CPU 0 instructions: 30000001 cycles: 10499189 heartbeat IPC: 2.8586 cumulative IPC: 2.85736 (Simulation time: 0 hr 4 min 28 sec) 
Heartbeat CPU 0 instructions: 40000002 cycles: 14003820 heartbeat IPC: 2.85337 cumulative IPC: 2.85636 (Simulation time: 0 hr 5 min 56 sec) 
Heartbeat CPU 0 instructions: 50000001 cycles: 17503927 heartbeat IPC: 2.85706 cumulative IPC: 2.8565 (Simulation time: 0 hr 7 min 28 sec) 

Warmup complete CPU 0 instructions: 50000001 cycles: 17503927 (Simulation time: 0 hr 7 min 28 sec) 

Heartbeat CPU 0 instructions: 60000000 cycles: 25407405 heartbeat IPC: 1.26527 cumulative IPC: 1.26527 (Simulation time: 0 hr 8 min 44 sec) 
Heartbeat CPU 0 instructions: 70000000 cycles: 33273545 heartbeat IPC: 1.27127 cumulative IPC: 1.26826 (Simulation time: 0 hr 10 min 4 sec) 
Heartbeat CPU 0 instructions: 80000000 cycles: 41155773 heartbeat IPC: 1.26868 cumulative IPC: 1.2684 (Simulation time: 0 hr 11 min 29 sec) 
*** Reached end of trace for Core: 0 Repeating trace: /home/mbaradaran/ChampSim/dpc3_traces/server_028.champsimtrace.xz
Heartbeat CPU 0 instructions: 90000000 cycles: 49002461 heartbeat IPC: 1.27442 cumulative IPC: 1.2699 (Simulation time: 0 hr 12 min 46 sec) 
Heartbeat CPU 0 instructions: 100000003 cycles: 56840185 heartbeat IPC: 1.27588 cumulative IPC: 1.27109 (Simulation time: 0 hr 14 min 2 sec) 
Finished CPU 0 instructions: 50000002 cycles: 39336258 cumulative IPC: 1.27109 (Simulation time: 0 hr 14 min 2 sec) 

ChampSim completed all CPUs

Region of Interest Statistics

CPU 0 cumulative IPC: 1.27109 instructions: 50000002 cycles: 39336258

SHEET
IPC : 1.27109

L1D TOTAL     ACCESS:   19527711  HIT:   17453509  MISS:    2074202
L1D LOAD      ACCESS:    6952347  HIT:    5904232  MISS:    1048115
L1D RFO       ACCESS:    6122169  HIT:    5838644  MISS:     283525
L1D PREFETCH  ACCESS:    6453195  HIT:    5710633  MISS:     742562
L1D WRITEBACK ACCESS:          0  HIT:          0  MISS:          0
L1D PREFETCH  REQUESTED:    7010298  ISSUED:    6913318  USEFUL:     175839  USELESS:     566726
L1D AVERAGE MISS LATENCY: 21.0468 cycles
L1D

SHEET
L1D-total_access : 19527711
L1D-total_hit : 17453509
L1D-total_miss : 2074202
L1D-load_access : 6952347
L1D-load_hit : 5904232
L1D-load_miss : 1048115
L1D-rfo_access : 6122169
L1D-rfo_hit : 5838644
L1D-rfo_miss : 283525
L1D-prefetch_access : 6453195
L1D-prefetch_hit : 5710633
L1D-prefetch_miss : 742562
L1D-writeback_access : 0
L1D-writeback_hit : 0
L1D-writeback_miss : 0
L1D-prefetch_requested : 7010298
L1D-prefetch_issued : 6913318
L1D-prefetch_useful : 175839
L1D-prefetch_useless : 566726
L1D-Avg_miss_latency : 21.0468
L1D-Morteza_fill_l2_prefetches : 0

L1I TOTAL     ACCESS:   16335223  HIT:   12304450  MISS:    4030773
L1I LOAD      ACCESS:    9502616  HIT:    8552868  MISS:     949748
L1I RFO       ACCESS:          0  HIT:          0  MISS:          0
L1I PREFETCH  ACCESS:    6832607  HIT:    3751582  MISS:    3081025
L1I WRITEBACK ACCESS:          0  HIT:          0  MISS:          0
L1I PREFETCH  REQUESTED:    7725137  ISSUED:    7718653  USEFUL:    2126716  USELESS:     954321
L1I AVERAGE MISS LATENCY: 15.4337 cycles
L1I

SHEET
L1I-total_access : 16335223
L1I-total_hit : 12304450
L1I-total_miss : 4030773
L1I-load_access : 9502616
L1I-load_hit : 8552868
L1I-load_miss : 949748
L1I-rfo_access : 0
L1I-rfo_hit : 0
L1I-rfo_miss : 0
L1I-prefetch_access : 6832607
L1I-prefetch_hit : 3751582
L1I-prefetch_miss : 3081025
L1I-writeback_access : 0
L1I-writeback_hit : 0
L1I-writeback_miss : 0
L1I-prefetch_requested : 7725137
L1I-prefetch_issued : 7718653
L1I-prefetch_useful : 2126716
L1I-prefetch_useless : 954321
L1I-Avg_miss_latency : 15.4337
L1I-Morteza_fill_l2_prefetches : 0

L2C TOTAL     ACCESS:    8449868  HIT:    7825761  MISS:     624107
L2C LOAD      ACCESS:    1502796  HIT:    1316788  MISS:     186008
L2C RFO       ACCESS:     281853  HIT:     230322  MISS:      51531
L2C PREFETCH  ACCESS:    6060138  HIT:    5675513  MISS:     384625
L2C WRITEBACK ACCESS:     605081  HIT:     603138  MISS:       1943
L2C PREFETCH  REQUESTED:    6874972  ISSUED:    6857333  USEFUL:      19533  USELESS:     364675
L2C AVERAGE MISS LATENCY: 41.9676 cycles
L2C

SHEET
L2C-total_access : 8449868
L2C-total_hit : 7825761
L2C-total_miss : 624107
L2C-load_access : 1502796
L2C-load_hit : 1316788
L2C-load_miss : 186008
L2C-rfo_access : 281853
L2C-rfo_hit : 230322
L2C-rfo_miss : 51531
L2C-prefetch_access : 6060138
L2C-prefetch_hit : 5675513
L2C-prefetch_miss : 384625
L2C-writeback_access : 605081
L2C-writeback_hit : 603138
L2C-writeback_miss : 1943
L2C-prefetch_requested : 6874972
L2C-prefetch_issued : 6857333
L2C-prefetch_useful : 19533
L2C-prefetch_useless : 364675
L2C-Avg_miss_latency : 41.9676
L2C-Morteza_fill_l2_prefetches : 1805838

LLC TOTAL     ACCESS:    2718487  HIT:    2644450  MISS:      74037
LLC LOAD      ACCESS:     185850  HIT:     169666  MISS:      16184
LLC RFO       ACCESS:      51531  HIT:      49553  MISS:       1978
LLC PREFETCH  ACCESS:    2389255  HIT:    2333783  MISS:      55472
LLC WRITEBACK ACCESS:      91851  HIT:      91448  MISS:        403
LLC PREFETCH  REQUESTED:          0  ISSUED:          0  USEFUL:       2512  USELESS:      52321
LLC AVERAGE MISS LATENCY: 158.78 cycles
LLC

SHEET
LLC-total_access : 2718487
LLC-total_hit : 2644450
LLC-total_miss : 74037
LLC-load_access : 185850
LLC-load_hit : 169666
LLC-load_miss : 16184
LLC-rfo_access : 51531
LLC-rfo_hit : 49553
LLC-rfo_miss : 1978
LLC-prefetch_access : 2389255
LLC-prefetch_hit : 2333783
LLC-prefetch_miss : 55472
LLC-writeback_access : 91851
LLC-writeback_hit : 91448
LLC-writeback_miss : 403
LLC-prefetch_requested : 0
LLC-prefetch_issued : 0
LLC-prefetch_useful : 2512
LLC-prefetch_useless : 52321
LLC-Avg_miss_latency : 158.78
LLC-Morteza_fill_l2_prefetches : 1986636

Major fault: 0 Minor fault: 6037



Printing Logs
statHeadFound: 1027657
statHeadMissing: 912794
statStreamBufferHit: 12493571
statPrefetchEntryFound: 5235729
statCompactorMatch: 11761356
statStreamTrackerLookup: 14434022
statRecord: 2672666
statGetPointer: 1940451
statEnqueuePrefetch: 15408338
statPrefetchQueueIsFull: 10
StreamBufferHitRate: 0.865564
Regions' size: 1833
next_region_correct: 1862161
next_region_wrong: 808654
next_region_correct_prediction: 0.697226
statStreamBufferLookups: 1039249584
statL1iLookups: 123266704
statCompactorLookups: 519624792
morteza: start

SHEET
mana_table_access_counter : 7908387
hobp_table_access_counter : 23688204
sab_access_counter : 17729300
srq_access_counter : 15813257

morteza: end
CPU 0 L1D next line prefetcher final stats

DRAM Statistics
 CHANNEL 0
 RQ ROW_BUFFER_HIT:      20290  ROW_BUFFER_MISS:      53344
 DBUS_CONGESTED:      31062
 WQ ROW_BUFFER_HIT:        335  ROW_BUFFER_MISS:       3301  FULL:          0

 AVG_CONGESTED_CYCLE: 5

CPU 0 Branch Prediction Accuracy: 99.7093% MPKI: 0.54708 Average ROB Occupancy at Mispredict: 133.393

Branch types
NOT_BRANCH: 40590968 81.1819%
BRANCH_DIRECT_JUMP: 523492 1.04698%
BRANCH_INDIRECT: 166997 0.333994%
BRANCH_CONDITIONAL: 6365191 12.7304%
BRANCH_DIRECT_CALL: 989495 1.97899%
BRANCH_INDIRECT_CALL: 187203 0.374406%
BRANCH_RETURN: 1176700 2.3534%
BRANCH_OTHER: 0 0%

