Initialize SIGNATURE TABLE
ST_SET: 1
ST_WAY: 256
ST_TAG_BIT: 16
ST_TAG_MASK: ffff

Initialize PATTERN TABLE
PT_SET: 512
PT_WAY: 4
SIG_DELTA_BIT: 7
C_SIG_BIT: 4
C_DELTA_BIT: 4

Initialize PREFETCH FILTER
FILTER_SET: 1024
MANA initialize 
tds: 2 tdm: 2
size MANA SINGLE: 15.5 KB
size MANA NULTIPLE: 0 KB
size HOBPT: 0.703125 KB
size SRQ: 0.14502 KB
size SABs: 0.290039 KB
size prefetch queue: 0.453125 KB
total: 17.0913 KB

*** ChampSim Multicore Out-of-Order Simulator ***

Warmup Instructions: 50000000
Simulation Instructions: 50000000
Number of CPUs: 1
LLC sets: 2048
LLC ways: 16
Off-chip DRAM Size: 4096 MB Channels: 1 Width: 64-bit Data Rate: 3200 MT/s

CPU 0 runs /home/mbaradaran/ChampSim/dpc3_traces/server_010.champsimtrace.xz
CPU 0 L1D next line prefetcher
Heartbeat CPU 0 instructions: 10000000 cycles: 3197618 heartbeat IPC: 3.12733 cumulative IPC: 3.12733 (Simulation time: 0 hr 1 min 19 sec) 
Heartbeat CPU 0 instructions: 20000002 cycles: 6391925 heartbeat IPC: 3.13057 cumulative IPC: 3.12895 (Simulation time: 0 hr 2 min 33 sec) 
Heartbeat CPU 0 instructions: 30000001 cycles: 9589233 heartbeat IPC: 3.12763 cumulative IPC: 3.12851 (Simulation time: 0 hr 3 min 51 sec) 
Heartbeat CPU 0 instructions: 40000000 cycles: 12782113 heartbeat IPC: 3.13197 cumulative IPC: 3.12937 (Simulation time: 0 hr 5 min 11 sec) 
Heartbeat CPU 0 instructions: 50000003 cycles: 15981595 heartbeat IPC: 3.12551 cumulative IPC: 3.1286 (Simulation time: 0 hr 6 min 27 sec) 

Warmup complete CPU 0 instructions: 50000003 cycles: 15981595 (Simulation time: 0 hr 6 min 27 sec) 

Heartbeat CPU 0 instructions: 60000001 cycles: 23710823 heartbeat IPC: 1.29379 cumulative IPC: 1.29379 (Simulation time: 0 hr 7 min 41 sec) 
Heartbeat CPU 0 instructions: 70000000 cycles: 31582675 heartbeat IPC: 1.27035 cumulative IPC: 1.28196 (Simulation time: 0 hr 8 min 53 sec) 
Heartbeat CPU 0 instructions: 80000003 cycles: 39542273 heartbeat IPC: 1.25635 cumulative IPC: 1.27331 (Simulation time: 0 hr 10 min 0 sec) 
Heartbeat CPU 0 instructions: 90000002 cycles: 47173405 heartbeat IPC: 1.31042 cumulative IPC: 1.28239 (Simulation time: 0 hr 11 min 13 sec) 
Heartbeat CPU 0 instructions: 100000003 cycles: 68049208 heartbeat IPC: 0.479024 cumulative IPC: 0.96029 (Simulation time: 0 hr 13 min 15 sec) 
Finished CPU 0 instructions: 50000000 cycles: 52067613 cumulative IPC: 0.96029 (Simulation time: 0 hr 13 min 15 sec) 

ChampSim completed all CPUs

Region of Interest Statistics

CPU 0 cumulative IPC: 0.96029 instructions: 50000000 cycles: 52067613

SHEET
IPC : 0.96029

L1D TOTAL     ACCESS:   20226268  HIT:   17000648  MISS:    3225620
L1D LOAD      ACCESS:    7861546  HIT:    6270941  MISS:    1590605
L1D RFO       ACCESS:    4722836  HIT:    4628391  MISS:      94445
L1D PREFETCH  ACCESS:    7641886  HIT:    6101316  MISS:    1540570
L1D WRITEBACK ACCESS:          0  HIT:          0  MISS:          0
L1D PREFETCH  REQUESTED:    7895740  ISSUED:    7797595  USEFUL:     119794  USELESS:    1420749
L1D AVERAGE MISS LATENCY: 22.5659 cycles
L1D

SHEET
L1D-total_access : 20226268
L1D-total_hit : 17000648
L1D-total_miss : 3225620
L1D-load_access : 7861546
L1D-load_hit : 6270941
L1D-load_miss : 1590605
L1D-rfo_access : 4722836
L1D-rfo_hit : 4628391
L1D-rfo_miss : 94445
L1D-prefetch_access : 7641886
L1D-prefetch_hit : 6101316
L1D-prefetch_miss : 1540570
L1D-writeback_access : 0
L1D-writeback_hit : 0
L1D-writeback_miss : 0
L1D-prefetch_requested : 7895740
L1D-prefetch_issued : 7797595
L1D-prefetch_useful : 119794
L1D-prefetch_useless : 1420749
L1D-Avg_miss_latency : 22.5659
L1D-Morteza_fill_l2_prefetches : 0

L1I TOTAL     ACCESS:   14766631  HIT:   12805975  MISS:    1960656
L1I LOAD      ACCESS:    9889220  HIT:    9484137  MISS:     405083
L1I RFO       ACCESS:          0  HIT:          0  MISS:          0
L1I PREFETCH  ACCESS:    4877411  HIT:    3321838  MISS:    1555573
L1I WRITEBACK ACCESS:          0  HIT:          0  MISS:          0
L1I PREFETCH  REQUESTED:    5246039  ISSUED:    5223360  USEFUL:    1079359  USELESS:     476242
L1I AVERAGE MISS LATENCY: 26.3609 cycles
L1I

SHEET
L1I-total_access : 14766631
L1I-total_hit : 12805975
L1I-total_miss : 1960656
L1I-load_access : 9889220
L1I-load_hit : 9484137
L1I-load_miss : 405083
L1I-rfo_access : 0
L1I-rfo_hit : 0
L1I-rfo_miss : 0
L1I-prefetch_access : 4877411
L1I-prefetch_hit : 3321838
L1I-prefetch_miss : 1555573
L1I-writeback_access : 0
L1I-writeback_hit : 0
L1I-writeback_miss : 0
L1I-prefetch_requested : 5246039
L1I-prefetch_issued : 5223360
L1I-prefetch_useful : 1079359
L1I-prefetch_useless : 476242
L1I-Avg_miss_latency : 26.3609
L1I-Morteza_fill_l2_prefetches : 0

L2C TOTAL     ACCESS:    6712986  HIT:    5587532  MISS:    1125454
L2C LOAD      ACCESS:    1832502  HIT:    1492043  MISS:     340459
L2C RFO       ACCESS:      93397  HIT:      49217  MISS:      44180
L2C PREFETCH  ACCESS:    4521697  HIT:    3781997  MISS:     739700
L2C WRITEBACK ACCESS:     265390  HIT:     264275  MISS:       1115
L2C PREFETCH  REQUESTED:    6610599  ISSUED:    6606994  USEFUL:      52689  USELESS:     687608
L2C AVERAGE MISS LATENCY: 45.0834 cycles
L2C

SHEET
L2C-total_access : 6712986
L2C-total_hit : 5587532
L2C-total_miss : 1125454
L2C-load_access : 1832502
L2C-load_hit : 1492043
L2C-load_miss : 340459
L2C-rfo_access : 93397
L2C-rfo_hit : 49217
L2C-rfo_miss : 44180
L2C-prefetch_access : 4521697
L2C-prefetch_hit : 3781997
L2C-prefetch_miss : 739700
L2C-writeback_access : 265390
L2C-writeback_hit : 264275
L2C-writeback_miss : 1115
L2C-prefetch_requested : 6610599
L2C-prefetch_issued : 6606994
L2C-prefetch_useful : 52689
L2C-prefetch_useless : 687608
L2C-Avg_miss_latency : 45.0834
L2C-Morteza_fill_l2_prefetches : 1265168

LLC TOTAL     ACCESS:    2555270  HIT:    2424267  MISS:     131003
LLC LOAD      ACCESS:     339375  HIT:     318830  MISS:      20545
LLC RFO       ACCESS:      44175  HIT:      35842  MISS:       8333
LLC PREFETCH  ACCESS:    2022185  HIT:    1920330  MISS:     101855
LLC WRITEBACK ACCESS:     149535  HIT:     149265  MISS:        270
LLC PREFETCH  REQUESTED:          0  ISSUED:          0  USEFUL:      11495  USELESS:      90722
LLC AVERAGE MISS LATENCY: 171.997 cycles
LLC

SHEET
LLC-total_access : 2555270
LLC-total_hit : 2424267
LLC-total_miss : 131003
LLC-load_access : 339375
LLC-load_hit : 318830
LLC-load_miss : 20545
LLC-rfo_access : 44175
LLC-rfo_hit : 35842
LLC-rfo_miss : 8333
LLC-prefetch_access : 2022185
LLC-prefetch_hit : 1920330
LLC-prefetch_miss : 101855
LLC-writeback_access : 149535
LLC-writeback_hit : 149265
LLC-writeback_miss : 270
LLC-prefetch_requested : 0
LLC-prefetch_issued : 0
LLC-prefetch_useful : 11495
LLC-prefetch_useless : 90722
LLC-Avg_miss_latency : 171.997
LLC-Morteza_fill_l2_prefetches : 1275959

Major fault: 0 Minor fault: 5593



Printing Logs
statHeadFound: 444187
statHeadMissing: 935042
statStreamBufferHit: 11568189
statPrefetchEntryFound: 3052944
statCompactorMatch: 11058901
statStreamTrackerLookup: 12947418
statRecord: 1888517
statGetPointer: 1379229
statEnqueuePrefetch: 10645430
statPrefetchQueueIsFull: 3377
StreamBufferHitRate: 0.893475
Regions' size: 3732
next_region_correct: 1564733
next_region_wrong: 320034
next_region_correct_prediction: 0.8302
statStreamBufferLookups: 932214096
statL1iLookups: 85163440
statCompactorLookups: 466107048
morteza: start

SHEET
mana_table_access_counter : 4944820
hobp_table_access_counter : 16127318
sab_access_counter : 14621133
srq_access_counter : 12881161

morteza: end
CPU 0 L1D next line prefetcher final stats

DRAM Statistics
 CHANNEL 0
 RQ ROW_BUFFER_HIT:      20781  ROW_BUFFER_MISS:     109950
 DBUS_CONGESTED:      58788
 WQ ROW_BUFFER_HIT:      10188  ROW_BUFFER_MISS:      43141  FULL:          0

 AVG_CONGESTED_CYCLE: 5

CPU 0 Branch Prediction Accuracy: 99.5528% MPKI: 0.89798 Average ROB Occupancy at Mispredict: 109.464

Branch types
NOT_BRANCH: 39958802 79.9176%
BRANCH_DIRECT_JUMP: 449946 0.899892%
BRANCH_INDIRECT: 140210 0.28042%
BRANCH_CONDITIONAL: 7679678 15.3594%
BRANCH_DIRECT_CALL: 701578 1.40316%
BRANCH_INDIRECT_CALL: 168971 0.337942%
BRANCH_RETURN: 900560 1.80112%
BRANCH_OTHER: 0 0%

