Initialize SIGNATURE TABLE
ST_SET: 1
ST_WAY: 256
ST_TAG_BIT: 16
ST_TAG_MASK: ffff

Initialize PATTERN TABLE
PT_SET: 512
PT_WAY: 4
SIG_DELTA_BIT: 7
C_SIG_BIT: 4
C_DELTA_BIT: 4

Initialize PREFETCH FILTER
FILTER_SET: 1024
MANA initialize 
tds: 2 tdm: 2
size MANA SINGLE: 15.5 KB
size MANA NULTIPLE: 0 KB
size HOBPT: 0.703125 KB
size SRQ: 0.14502 KB
size SABs: 0.290039 KB
size prefetch queue: 0.453125 KB
total: 17.0913 KB

*** ChampSim Multicore Out-of-Order Simulator ***

Warmup Instructions: 50000000
Simulation Instructions: 50000000
Number of CPUs: 1
LLC sets: 2048
LLC ways: 16
Off-chip DRAM Size: 4096 MB Channels: 1 Width: 64-bit Data Rate: 3200 MT/s

CPU 0 runs /home/mbaradaran/ChampSim/dpc3_traces/server_027.champsimtrace.xz
CPU 0 L1D next line prefetcher
Heartbeat CPU 0 instructions: 10000001 cycles: 3529455 heartbeat IPC: 2.8333 cumulative IPC: 2.8333 (Simulation time: 0 hr 1 min 32 sec) 
Heartbeat CPU 0 instructions: 20000001 cycles: 7063474 heartbeat IPC: 2.82964 cumulative IPC: 2.83147 (Simulation time: 0 hr 2 min 55 sec) 
Heartbeat CPU 0 instructions: 30000002 cycles: 10592891 heartbeat IPC: 2.83333 cumulative IPC: 2.83209 (Simulation time: 0 hr 4 min 25 sec) 
Heartbeat CPU 0 instructions: 40000000 cycles: 14127742 heartbeat IPC: 2.82897 cumulative IPC: 2.83131 (Simulation time: 0 hr 5 min 56 sec) 
Heartbeat CPU 0 instructions: 50000001 cycles: 17655943 heartbeat IPC: 2.83431 cumulative IPC: 2.83191 (Simulation time: 0 hr 7 min 21 sec) 

Warmup complete CPU 0 instructions: 50000001 cycles: 17655943 (Simulation time: 0 hr 7 min 21 sec) 

Heartbeat CPU 0 instructions: 60000002 cycles: 25142031 heartbeat IPC: 1.33581 cumulative IPC: 1.33581 (Simulation time: 0 hr 8 min 39 sec) 
Heartbeat CPU 0 instructions: 70000003 cycles: 32536276 heartbeat IPC: 1.3524 cumulative IPC: 1.34406 (Simulation time: 0 hr 9 min 57 sec) 
Heartbeat CPU 0 instructions: 80000002 cycles: 39979038 heartbeat IPC: 1.34359 cumulative IPC: 1.3439 (Simulation time: 0 hr 11 min 11 sec) 
Heartbeat CPU 0 instructions: 90000001 cycles: 47458026 heartbeat IPC: 1.33708 cumulative IPC: 1.34219 (Simulation time: 0 hr 12 min 36 sec) 
Heartbeat CPU 0 instructions: 100000002 cycles: 54825766 heartbeat IPC: 1.35727 cumulative IPC: 1.34518 (Simulation time: 0 hr 13 min 52 sec) 
Finished CPU 0 instructions: 50000001 cycles: 37169823 cumulative IPC: 1.34518 (Simulation time: 0 hr 13 min 52 sec) 

ChampSim completed all CPUs

Region of Interest Statistics

CPU 0 cumulative IPC: 1.34518 instructions: 50000001 cycles: 37169823

SHEET
IPC : 1.34518

L1D TOTAL     ACCESS:   20574241  HIT:   18971815  MISS:    1602426
L1D LOAD      ACCESS:    7275306  HIT:    6586736  MISS:     688570
L1D RFO       ACCESS:    6305503  HIT:    6019224  MISS:     286279
L1D PREFETCH  ACCESS:    6993432  HIT:    6365855  MISS:     627577
L1D WRITEBACK ACCESS:          0  HIT:          0  MISS:          0
L1D PREFETCH  REQUESTED:    7320368  ISSUED:    7199851  USEFUL:     152699  USELESS:     474892
L1D AVERAGE MISS LATENCY: 23.1814 cycles
L1D

SHEET
L1D-total_access : 20574241
L1D-total_hit : 18971815
L1D-total_miss : 1602426
L1D-load_access : 7275306
L1D-load_hit : 6586736
L1D-load_miss : 688570
L1D-rfo_access : 6305503
L1D-rfo_hit : 6019224
L1D-rfo_miss : 286279
L1D-prefetch_access : 6993432
L1D-prefetch_hit : 6365855
L1D-prefetch_miss : 627577
L1D-writeback_access : 0
L1D-writeback_hit : 0
L1D-writeback_miss : 0
L1D-prefetch_requested : 7320368
L1D-prefetch_issued : 7199851
L1D-prefetch_useful : 152699
L1D-prefetch_useless : 474892
L1D-Avg_miss_latency : 23.1814
L1D-Morteza_fill_l2_prefetches : 0

L1I TOTAL     ACCESS:   16151172  HIT:   12082656  MISS:    4068516
L1I LOAD      ACCESS:    9221804  HIT:    8230857  MISS:     990947
L1I RFO       ACCESS:          0  HIT:          0  MISS:          0
L1I PREFETCH  ACCESS:    6929368  HIT:    3851799  MISS:    3077569
L1I WRITEBACK ACCESS:          0  HIT:          0  MISS:          0
L1I PREFETCH  REQUESTED:    7824755  ISSUED:    7811912  USEFUL:    1998025  USELESS:    1079533
L1I AVERAGE MISS LATENCY: 16.4037 cycles
L1I

SHEET
L1I-total_access : 16151172
L1I-total_hit : 12082656
L1I-total_miss : 4068516
L1I-load_access : 9221804
L1I-load_hit : 8230857
L1I-load_miss : 990947
L1I-rfo_access : 0
L1I-rfo_hit : 0
L1I-rfo_miss : 0
L1I-prefetch_access : 6929368
L1I-prefetch_hit : 3851799
L1I-prefetch_miss : 3077569
L1I-writeback_access : 0
L1I-writeback_hit : 0
L1I-writeback_miss : 0
L1I-prefetch_requested : 7824755
L1I-prefetch_issued : 7811912
L1I-prefetch_useful : 1998025
L1I-prefetch_useless : 1079533
L1I-Avg_miss_latency : 16.4037
L1I-Morteza_fill_l2_prefetches : 0

L2C TOTAL     ACCESS:    7624687  HIT:    6876853  MISS:     747834
L2C LOAD      ACCESS:    1333600  HIT:    1135143  MISS:     198457
L2C RFO       ACCESS:     283772  HIT:     197006  MISS:      86766
L2C PREFETCH  ACCESS:    5448056  HIT:    4990388  MISS:     457668
L2C WRITEBACK ACCESS:     559259  HIT:     554316  MISS:       4943
L2C PREFETCH  REQUESTED:    5775146  ISSUED:    5769493  USEFUL:      38845  USELESS:     418048
L2C AVERAGE MISS LATENCY: 38.8275 cycles
L2C

SHEET
L2C-total_access : 7624687
L2C-total_hit : 6876853
L2C-total_miss : 747834
L2C-load_access : 1333600
L2C-load_hit : 1135143
L2C-load_miss : 198457
L2C-rfo_access : 283772
L2C-rfo_hit : 197006
L2C-rfo_miss : 86766
L2C-prefetch_access : 5448056
L2C-prefetch_hit : 4990388
L2C-prefetch_miss : 457668
L2C-writeback_access : 559259
L2C-writeback_hit : 554316
L2C-writeback_miss : 4943
L2C-prefetch_requested : 5775146
L2C-prefetch_issued : 5769493
L2C-prefetch_useful : 38845
L2C-prefetch_useless : 418048
L2C-Avg_miss_latency : 38.8275
L2C-Morteza_fill_l2_prefetches : 1422787

LLC TOTAL     ACCESS:    2431955  HIT:    2398649  MISS:      33306
LLC LOAD      ACCESS:     198321  HIT:     194632  MISS:       3689
LLC RFO       ACCESS:      86765  HIT:      72872  MISS:      13893
LLC PREFETCH  ACCESS:    2007558  HIT:    1992034  MISS:      15524
LLC WRITEBACK ACCESS:     139311  HIT:     139111  MISS:        200
LLC PREFETCH  REQUESTED:          0  ISSUED:          0  USEFUL:       1402  USELESS:      13274
LLC AVERAGE MISS LATENCY: 184.906 cycles
LLC

SHEET
LLC-total_access : 2431955
LLC-total_hit : 2398649
LLC-total_miss : 33306
LLC-load_access : 198321
LLC-load_hit : 194632
LLC-load_miss : 3689
LLC-rfo_access : 86765
LLC-rfo_hit : 72872
LLC-rfo_miss : 13893
LLC-prefetch_access : 2007558
LLC-prefetch_hit : 1992034
LLC-prefetch_miss : 15524
LLC-writeback_access : 139311
LLC-writeback_hit : 139111
LLC-writeback_miss : 200
LLC-prefetch_requested : 0
LLC-prefetch_issued : 0
LLC-prefetch_useful : 1402
LLC-prefetch_useless : 13274
LLC-Avg_miss_latency : 184.906
LLC-Morteza_fill_l2_prefetches : 1556072

Major fault: 0 Minor fault: 2477



Printing Logs
statHeadFound: 1078416
statHeadMissing: 1206238
statStreamBufferHit: 11931449
statPrefetchEntryFound: 5212690
statCompactorMatch: 11674539
statStreamTrackerLookup: 14216103
statRecord: 2541564
statGetPointer: 2284654
statEnqueuePrefetch: 15540827
statPrefetchQueueIsFull: 30
StreamBufferHitRate: 0.839291
Regions' size: 2235
next_region_correct: 1702284
next_region_wrong: 837027
next_region_correct_prediction: 0.670372
statStreamBufferLookups: 1023559416
statL1iLookups: 124326616
statCompactorLookups: 511779708
morteza: start

SHEET
mana_table_access_counter : 7754266
hobp_table_access_counter : 24517592
sab_access_counter : 17144139
srq_access_counter : 15403148

morteza: end
CPU 0 L1D next line prefetcher final stats

DRAM Statistics
 CHANNEL 0
 RQ ROW_BUFFER_HIT:      10922  ROW_BUFFER_MISS:      22180
 DBUS_CONGESTED:      23062
 WQ ROW_BUFFER_HIT:       1626  ROW_BUFFER_MISS:      14731  FULL:          0

 AVG_CONGESTED_CYCLE: 6

CPU 0 Branch Prediction Accuracy: 99.8082% MPKI: 0.35064 Average ROB Occupancy at Mispredict: 133.742

Branch types
NOT_BRANCH: 40857451 81.7149%
BRANCH_DIRECT_JUMP: 526634 1.05327%
BRANCH_INDIRECT: 205902 0.411804%
BRANCH_CONDITIONAL: 6184046 12.3681%
BRANCH_DIRECT_CALL: 938467 1.87693%
BRANCH_INDIRECT_CALL: 174486 0.348972%
BRANCH_RETURN: 1112957 2.22591%
BRANCH_OTHER: 0 0%

