Initialize SIGNATURE TABLE
ST_SET: 1
ST_WAY: 256
ST_TAG_BIT: 16
ST_TAG_MASK: ffff

Initialize PATTERN TABLE
PT_SET: 512
PT_WAY: 4
SIG_DELTA_BIT: 7
C_SIG_BIT: 4
C_DELTA_BIT: 4

Initialize PREFETCH FILTER
FILTER_SET: 1024
MANA initialize 
tds: 2 tdm: 2
size MANA SINGLE: 15.5 KB
size MANA NULTIPLE: 0 KB
size HOBPT: 0.703125 KB
size SRQ: 0.14502 KB
size SABs: 0.290039 KB
size prefetch queue: 0.453125 KB
total: 17.0913 KB

*** ChampSim Multicore Out-of-Order Simulator ***

Warmup Instructions: 50000000
Simulation Instructions: 50000000
Number of CPUs: 1
LLC sets: 2048
LLC ways: 16
Off-chip DRAM Size: 4096 MB Channels: 1 Width: 64-bit Data Rate: 3200 MT/s

CPU 0 runs /home/mbaradaran/ChampSim/dpc3_traces/server_011.champsimtrace.xz
CPU 0 L1D next line prefetcher
Heartbeat CPU 0 instructions: 10000002 cycles: 3205264 heartbeat IPC: 3.11987 cumulative IPC: 3.11987 (Simulation time: 0 hr 1 min 17 sec) 
Heartbeat CPU 0 instructions: 20000001 cycles: 6415291 heartbeat IPC: 3.11524 cumulative IPC: 3.11755 (Simulation time: 0 hr 2 min 38 sec) 
Heartbeat CPU 0 instructions: 30000001 cycles: 9670606 heartbeat IPC: 3.0719 cumulative IPC: 3.10218 (Simulation time: 0 hr 3 min 59 sec) 
Heartbeat CPU 0 instructions: 40000003 cycles: 12872968 heartbeat IPC: 3.1227 cumulative IPC: 3.10729 (Simulation time: 0 hr 5 min 22 sec) 
Heartbeat CPU 0 instructions: 50000000 cycles: 16081671 heartbeat IPC: 3.11652 cumulative IPC: 3.10913 (Simulation time: 0 hr 6 min 46 sec) 

Warmup complete CPU 0 instructions: 50000004 cycles: 16081672 (Simulation time: 0 hr 6 min 46 sec) 

Heartbeat CPU 0 instructions: 60000002 cycles: 24059310 heartbeat IPC: 1.2535 cumulative IPC: 1.2535 (Simulation time: 0 hr 7 min 59 sec) 
Heartbeat CPU 0 instructions: 70000001 cycles: 32484901 heartbeat IPC: 1.18686 cumulative IPC: 1.21927 (Simulation time: 0 hr 9 min 10 sec) 
Heartbeat CPU 0 instructions: 80000003 cycles: 41853150 heartbeat IPC: 1.06744 cumulative IPC: 1.16408 (Simulation time: 0 hr 10 min 12 sec) 
Heartbeat CPU 0 instructions: 90000001 cycles: 50048883 heartbeat IPC: 1.22015 cumulative IPC: 1.17761 (Simulation time: 0 hr 11 min 18 sec) 
Heartbeat CPU 0 instructions: 100000000 cycles: 58055040 heartbeat IPC: 1.24904 cumulative IPC: 1.19123 (Simulation time: 0 hr 12 min 25 sec) 
Finished CPU 0 instructions: 50000003 cycles: 41973380 cumulative IPC: 1.19123 (Simulation time: 0 hr 12 min 25 sec) 

ChampSim completed all CPUs

Region of Interest Statistics

CPU 0 cumulative IPC: 1.19123 instructions: 50000003 cycles: 41973380

SHEET
IPC : 1.19123

L1D TOTAL     ACCESS:   18410775  HIT:   17379286  MISS:    1031489
L1D LOAD      ACCESS:    6900383  HIT:    6421628  MISS:     478755
L1D RFO       ACCESS:    4845957  HIT:    4763893  MISS:      82064
L1D PREFETCH  ACCESS:    6664435  HIT:    6193765  MISS:     470670
L1D WRITEBACK ACCESS:          0  HIT:          0  MISS:          0
L1D PREFETCH  REQUESTED:    6937856  ISSUED:    6843605  USEFUL:     140189  USELESS:     330477
L1D AVERAGE MISS LATENCY: 39.8107 cycles
L1D

SHEET
L1D-total_access : 18410775
L1D-total_hit : 17379286
L1D-total_miss : 1031489
L1D-load_access : 6900383
L1D-load_hit : 6421628
L1D-load_miss : 478755
L1D-rfo_access : 4845957
L1D-rfo_hit : 4763893
L1D-rfo_miss : 82064
L1D-prefetch_access : 6664435
L1D-prefetch_hit : 6193765
L1D-prefetch_miss : 470670
L1D-writeback_access : 0
L1D-writeback_hit : 0
L1D-writeback_miss : 0
L1D-prefetch_requested : 6937856
L1D-prefetch_issued : 6843605
L1D-prefetch_useful : 140189
L1D-prefetch_useless : 330477
L1D-Avg_miss_latency : 39.8107
L1D-Morteza_fill_l2_prefetches : 0

L1I TOTAL     ACCESS:   13880566  HIT:   12049674  MISS:    1830892
L1I LOAD      ACCESS:    8813629  HIT:    8394164  MISS:     419465
L1I RFO       ACCESS:          0  HIT:          0  MISS:          0
L1I PREFETCH  ACCESS:    5066937  HIT:    3655510  MISS:    1411427
L1I WRITEBACK ACCESS:          0  HIT:          0  MISS:          0
L1I PREFETCH  REQUESTED:    5453915  ISSUED:    5419151  USEFUL:     908870  USELESS:     502587
L1I AVERAGE MISS LATENCY: 28.3081 cycles
L1I

SHEET
L1I-total_access : 13880566
L1I-total_hit : 12049674
L1I-total_miss : 1830892
L1I-load_access : 8813629
L1I-load_hit : 8394164
L1I-load_miss : 419465
L1I-rfo_access : 0
L1I-rfo_hit : 0
L1I-rfo_miss : 0
L1I-prefetch_access : 5066937
L1I-prefetch_hit : 3655510
L1I-prefetch_miss : 1411427
L1I-writeback_access : 0
L1I-writeback_hit : 0
L1I-writeback_miss : 0
L1I-prefetch_requested : 5453915
L1I-prefetch_issued : 5419151
L1I-prefetch_useful : 908870
L1I-prefetch_useless : 502587
L1I-Avg_miss_latency : 28.3081
L1I-Morteza_fill_l2_prefetches : 0

L2C TOTAL     ACCESS:    3748642  HIT:    2638561  MISS:    1110081
L2C LOAD      ACCESS:     754696  HIT:     407860  MISS:     346836
L2C RFO       ACCESS:      80295  HIT:      34813  MISS:      45482
L2C PREFETCH  ACCESS:    2645542  HIT:    1928987  MISS:     716555
L2C WRITEBACK ACCESS:     268109  HIT:     266901  MISS:       1208
L2C PREFETCH  REQUESTED:    3436772  ISSUED:    3433639  USEFUL:      57088  USELESS:     659346
L2C AVERAGE MISS LATENCY: 48.5687 cycles
L2C

SHEET
L2C-total_access : 3748642
L2C-total_hit : 2638561
L2C-total_miss : 1110081
L2C-load_access : 754696
L2C-load_hit : 407860
L2C-load_miss : 346836
L2C-rfo_access : 80295
L2C-rfo_hit : 34813
L2C-rfo_miss : 45482
L2C-prefetch_access : 2645542
L2C-prefetch_hit : 1928987
L2C-prefetch_miss : 716555
L2C-writeback_access : 268109
L2C-writeback_hit : 266901
L2C-writeback_miss : 1208
L2C-prefetch_requested : 3436772
L2C-prefetch_issued : 3433639
L2C-prefetch_useful : 57088
L2C-prefetch_useless : 659346
L2C-Avg_miss_latency : 48.5687
L2C-Morteza_fill_l2_prefetches : 622078

LLC TOTAL     ACCESS:    2252185  HIT:    2078689  MISS:     173496
LLC LOAD      ACCESS:     345579  HIT:     310344  MISS:      35235
LLC RFO       ACCESS:      45473  HIT:      32352  MISS:      13121
LLC PREFETCH  ACCESS:    1711030  HIT:    1586266  MISS:     124764
LLC WRITEBACK ACCESS:     150103  HIT:     149727  MISS:        376
LLC PREFETCH  REQUESTED:          0  ISSUED:          0  USEFUL:      21626  USELESS:     102103
LLC AVERAGE MISS LATENCY: 169.333 cycles
LLC

SHEET
LLC-total_access : 2252185
LLC-total_hit : 2078689
LLC-total_miss : 173496
LLC-load_access : 345579
LLC-load_hit : 310344
LLC-load_miss : 35235
LLC-rfo_access : 45473
LLC-rfo_hit : 32352
LLC-rfo_miss : 13121
LLC-prefetch_access : 1711030
LLC-prefetch_hit : 1586266
LLC-prefetch_miss : 124764
LLC-writeback_access : 150103
LLC-writeback_hit : 149727
LLC-writeback_miss : 376
LLC-prefetch_requested : 0
LLC-prefetch_issued : 0
LLC-prefetch_useful : 21626
LLC-prefetch_useless : 102103
LLC-Avg_miss_latency : 169.333
LLC-Morteza_fill_l2_prefetches : 966224

Major fault: 0 Minor fault: 6971



Printing Logs
statHeadFound: 483533
statHeadMissing: 899014
statStreamBufferHit: 10930203
statPrefetchEntryFound: 3100799
statCompactorMatch: 10502764
statStreamTrackerLookup: 12312750
statRecord: 1809986
statGetPointer: 1382547
statEnqueuePrefetch: 10901968
statPrefetchQueueIsFull: 395
StreamBufferHitRate: 0.887714
Regions' size: 7800
next_region_correct: 1445705
next_region_wrong: 356463
next_region_correct_prediction: 0.802203
statStreamBufferLookups: 886518000
statL1iLookups: 87215744
statCompactorLookups: 443259000
morteza: start

SHEET
mana_table_access_counter : 4911162
hobp_table_access_counter : 15871342
sab_access_counter : 14031002
srq_access_counter : 12622530

morteza: end
CPU 0 L1D next line prefetcher final stats

DRAM Statistics
 CHANNEL 0
 RQ ROW_BUFFER_HIT:      32130  ROW_BUFFER_MISS:     140980
 DBUS_CONGESTED:      76794
 WQ ROW_BUFFER_HIT:      12778  ROW_BUFFER_MISS:      48722  FULL:          0

 AVG_CONGESTED_CYCLE: 5

CPU 0 Branch Prediction Accuracy: 97.5565% MPKI: 4.59006 Average ROB Occupancy at Mispredict: 54.9403

Branch types
NOT_BRANCH: 40607199 81.2144%
BRANCH_DIRECT_JUMP: 451601 0.903202%
BRANCH_INDIRECT: 151580 0.30316%
BRANCH_CONDITIONAL: 7041635 14.0833%
BRANCH_DIRECT_CALL: 647827 1.29565%
BRANCH_INDIRECT_CALL: 211373 0.422746%
BRANCH_RETURN: 888439 1.77688%
BRANCH_OTHER: 0 0%

