Initialize SIGNATURE TABLE
ST_SET: 1
ST_WAY: 256
ST_TAG_BIT: 16
ST_TAG_MASK: ffff

Initialize PATTERN TABLE
PT_SET: 512
PT_WAY: 4
SIG_DELTA_BIT: 7
C_SIG_BIT: 4
C_DELTA_BIT: 4

Initialize PREFETCH FILTER
FILTER_SET: 1024
MANA initialize 
tds: 2 tdm: 2
size MANA SINGLE: 15.5 KB
size MANA NULTIPLE: 0 KB
size HOBPT: 0.703125 KB
size SRQ: 0.14502 KB
size SABs: 0.290039 KB
size prefetch queue: 0.453125 KB
total: 17.0913 KB

*** ChampSim Multicore Out-of-Order Simulator ***

Warmup Instructions: 50000000
Simulation Instructions: 50000000
Number of CPUs: 1
LLC sets: 2048
LLC ways: 16
Off-chip DRAM Size: 4096 MB Channels: 1 Width: 64-bit Data Rate: 3200 MT/s

CPU 0 runs /home/mbaradaran/ChampSim/dpc3_traces/server_009.champsimtrace.xz
CPU 0 L1D next line prefetcher
Heartbeat CPU 0 instructions: 10000003 cycles: 3198852 heartbeat IPC: 3.12612 cumulative IPC: 3.12612 (Simulation time: 0 hr 1 min 25 sec) 
Heartbeat CPU 0 instructions: 20000001 cycles: 6391066 heartbeat IPC: 3.13262 cumulative IPC: 3.12937 (Simulation time: 0 hr 2 min 42 sec) 
Heartbeat CPU 0 instructions: 30000002 cycles: 9598121 heartbeat IPC: 3.11813 cumulative IPC: 3.12561 (Simulation time: 0 hr 3 min 56 sec) 
Heartbeat CPU 0 instructions: 40000003 cycles: 12801893 heartbeat IPC: 3.12132 cumulative IPC: 3.12454 (Simulation time: 0 hr 5 min 11 sec) 
Heartbeat CPU 0 instructions: 50000000 cycles: 16061893 heartbeat IPC: 3.06748 cumulative IPC: 3.11296 (Simulation time: 0 hr 6 min 25 sec) 

Warmup complete CPU 0 instructions: 50000004 cycles: 16061894 (Simulation time: 0 hr 6 min 25 sec) 

Heartbeat CPU 0 instructions: 60000002 cycles: 32093755 heartbeat IPC: 0.623758 cumulative IPC: 0.623758 (Simulation time: 0 hr 8 min 7 sec) 
Heartbeat CPU 0 instructions: 70000003 cycles: 53323990 heartbeat IPC: 0.471026 cumulative IPC: 0.536738 (Simulation time: 0 hr 10 min 23 sec) 
Heartbeat CPU 0 instructions: 80000000 cycles: 60981120 heartbeat IPC: 1.30597 cumulative IPC: 0.667865 (Simulation time: 0 hr 11 min 34 sec) 
Heartbeat CPU 0 instructions: 90000001 cycles: 68756980 heartbeat IPC: 1.28603 cumulative IPC: 0.759084 (Simulation time: 0 hr 12 min 44 sec) 
Heartbeat CPU 0 instructions: 100000003 cycles: 76480412 heartbeat IPC: 1.29476 cumulative IPC: 0.827561 (Simulation time: 0 hr 13 min 49 sec) 
Finished CPU 0 instructions: 50000003 cycles: 60418519 cumulative IPC: 0.827561 (Simulation time: 0 hr 13 min 49 sec) 

ChampSim completed all CPUs

Region of Interest Statistics

CPU 0 cumulative IPC: 0.827561 instructions: 50000003 cycles: 60418519

SHEET
IPC : 0.827561

L1D TOTAL     ACCESS:   21826435  HIT:   17246411  MISS:    4580024
L1D LOAD      ACCESS:    8723929  HIT:    6445693  MISS:    2278236
L1D RFO       ACCESS:    4588885  HIT:    4484224  MISS:     104661
L1D PREFETCH  ACCESS:    8513621  HIT:    6316494  MISS:    2197127
L1D WRITEBACK ACCESS:          0  HIT:          0  MISS:          0
L1D PREFETCH  REQUESTED:    8757598  ISSUED:    8659197  USEFUL:     108432  USELESS:    2088694
L1D AVERAGE MISS LATENCY: 20.2148 cycles
L1D

SHEET
L1D-total_access : 21826435
L1D-total_hit : 17246411
L1D-total_miss : 4580024
L1D-load_access : 8723929
L1D-load_hit : 6445693
L1D-load_miss : 2278236
L1D-rfo_access : 4588885
L1D-rfo_hit : 4484224
L1D-rfo_miss : 104661
L1D-prefetch_access : 8513621
L1D-prefetch_hit : 6316494
L1D-prefetch_miss : 2197127
L1D-writeback_access : 0
L1D-writeback_hit : 0
L1D-writeback_miss : 0
L1D-prefetch_requested : 8757598
L1D-prefetch_issued : 8659197
L1D-prefetch_useful : 108432
L1D-prefetch_useless : 2088694
L1D-Avg_miss_latency : 20.2148
L1D-Morteza_fill_l2_prefetches : 0

L1I TOTAL     ACCESS:   15480335  HIT:   13866326  MISS:    1614009
L1I LOAD      ACCESS:   10697818  HIT:   10346586  MISS:     351232
L1I RFO       ACCESS:          0  HIT:          0  MISS:          0
L1I PREFETCH  ACCESS:    4782517  HIT:    3519740  MISS:    1262777
L1I WRITEBACK ACCESS:          0  HIT:          0  MISS:          0
L1I PREFETCH  REQUESTED:    5099540  ISSUED:    5079676  USEFUL:     841455  USELESS:     421285
L1I AVERAGE MISS LATENCY: 27.9078 cycles
L1I

SHEET
L1I-total_access : 15480335
L1I-total_hit : 13866326
L1I-total_miss : 1614009
L1I-load_access : 10697818
L1I-load_hit : 10346586
L1I-load_miss : 351232
L1I-rfo_access : 0
L1I-rfo_hit : 0
L1I-rfo_miss : 0
L1I-prefetch_access : 4782517
L1I-prefetch_hit : 3519740
L1I-prefetch_miss : 1262777
L1I-writeback_access : 0
L1I-writeback_hit : 0
L1I-writeback_miss : 0
L1I-prefetch_requested : 5099540
L1I-prefetch_issued : 5079676
L1I-prefetch_useful : 841455
L1I-prefetch_useless : 421285
L1I-Avg_miss_latency : 27.9078
L1I-Morteza_fill_l2_prefetches : 0

L2C TOTAL     ACCESS:    7923681  HIT:    6901469  MISS:    1022212
L2C LOAD      ACCESS:    2495992  HIT:    2185508  MISS:     310484
L2C RFO       ACCESS:     103652  HIT:      64120  MISS:      39532
L2C PREFETCH  ACCESS:    5067147  HIT:    4395917  MISS:     671230
L2C WRITEBACK ACCESS:     256890  HIT:     255924  MISS:        966
L2C PREFETCH  REQUESTED:    7151143  ISSUED:    7148792  USEFUL:      46124  USELESS:     623929
L2C AVERAGE MISS LATENCY: 46.2957 cycles
L2C

SHEET
L2C-total_access : 7923681
L2C-total_hit : 6901469
L2C-total_miss : 1022212
L2C-load_access : 2495992
L2C-load_hit : 2185508
L2C-load_miss : 310484
L2C-rfo_access : 103652
L2C-rfo_hit : 64120
L2C-rfo_miss : 39532
L2C-prefetch_access : 5067147
L2C-prefetch_hit : 4395917
L2C-prefetch_miss : 671230
L2C-writeback_access : 256890
L2C-writeback_hit : 255924
L2C-writeback_miss : 966
L2C-prefetch_requested : 7151143
L2C-prefetch_issued : 7148792
L2C-prefetch_useful : 46124
L2C-prefetch_useless : 623929
L2C-Avg_miss_latency : 46.2957
L2C-Morteza_fill_l2_prefetches : 1474401

LLC TOTAL     ACCESS:    2449160  HIT:    2318011  MISS:     131149
LLC LOAD      ACCESS:     309363  HIT:     286262  MISS:      23101
LLC RFO       ACCESS:      39524  HIT:      30441  MISS:       9083
LLC PREFETCH  ACCESS:    1964611  HIT:    1865914  MISS:      98697
LLC WRITEBACK ACCESS:     135662  HIT:     135394  MISS:        268
LLC PREFETCH  REQUESTED:          0  ISSUED:          0  USEFUL:      12558  USELESS:      83686
LLC AVERAGE MISS LATENCY: 169.815 cycles
LLC

SHEET
LLC-total_access : 2449160
LLC-total_hit : 2318011
LLC-total_miss : 131149
LLC-load_access : 309363
LLC-load_hit : 286262
LLC-load_miss : 23101
LLC-rfo_access : 39524
LLC-rfo_hit : 30441
LLC-rfo_miss : 9083
LLC-prefetch_access : 1964611
LLC-prefetch_hit : 1865914
LLC-prefetch_miss : 98697
LLC-writeback_access : 135662
LLC-writeback_hit : 135394
LLC-writeback_miss : 268
LLC-prefetch_requested : 0
LLC-prefetch_issued : 0
LLC-prefetch_useful : 12558
LLC-prefetch_useless : 83686
LLC-Avg_miss_latency : 169.815
LLC-Morteza_fill_l2_prefetches : 1282361

Major fault: 0 Minor fault: 6351



Printing Logs
statHeadFound: 447408
statHeadMissing: 899646
statStreamBufferHit: 12235652
statPrefetchEntryFound: 3107587
statCompactorMatch: 11654907
statStreamTrackerLookup: 13582706
statRecord: 1927799
statGetPointer: 1347054
statEnqueuePrefetch: 10594916
statPrefetchQueueIsFull: 3416
StreamBufferHitRate: 0.900826
Regions' size: 4321
next_region_correct: 1603949
next_region_wrong: 319511
next_region_correct_prediction: 0.833887
statStreamBufferLookups: 977954832
statL1iLookups: 84759328
statCompactorLookups: 488977416
morteza: start

SHEET
mana_table_access_counter : 5038784
hobp_table_access_counter : 16210429
sab_access_counter : 15343239
srq_access_counter : 13192913

morteza: end
CPU 0 L1D next line prefetcher final stats

DRAM Statistics
 CHANNEL 0
 RQ ROW_BUFFER_HIT:      25127  ROW_BUFFER_MISS:     105735
 DBUS_CONGESTED:      58720
 WQ ROW_BUFFER_HIT:       9149  ROW_BUFFER_MISS:      38709  FULL:          0

 AVG_CONGESTED_CYCLE: 5

CPU 0 Branch Prediction Accuracy: 99.4713% MPKI: 1.11484 Average ROB Occupancy at Mispredict: 102.161

Branch types
NOT_BRANCH: 39456615 78.9132%
BRANCH_DIRECT_JUMP: 445350 0.8907%
BRANCH_INDIRECT: 131149 0.262298%
BRANCH_CONDITIONAL: 8130196 16.2604%
BRANCH_DIRECT_CALL: 732485 1.46497%
BRANCH_INDIRECT_CALL: 172369 0.344738%
BRANCH_RETURN: 931558 1.86312%
BRANCH_OTHER: 0 0%

