Initialize SIGNATURE TABLE
ST_SET: 1
ST_WAY: 256
ST_TAG_BIT: 16
ST_TAG_MASK: ffff

Initialize PATTERN TABLE
PT_SET: 512
PT_WAY: 4
SIG_DELTA_BIT: 7
C_SIG_BIT: 4
C_DELTA_BIT: 4

Initialize PREFETCH FILTER
FILTER_SET: 1024
MANA initialize 
tds: 2 tdm: 2
size MANA SINGLE: 15.5 KB
size MANA NULTIPLE: 0 KB
size HOBPT: 0.703125 KB
size SRQ: 0.14502 KB
size SABs: 0.290039 KB
size prefetch queue: 0.453125 KB
total: 17.0913 KB

*** ChampSim Multicore Out-of-Order Simulator ***

Warmup Instructions: 50000000
Simulation Instructions: 50000000
Number of CPUs: 1
LLC sets: 2048
LLC ways: 16
Off-chip DRAM Size: 4096 MB Channels: 1 Width: 64-bit Data Rate: 3200 MT/s

CPU 0 runs /home/mbaradaran/ChampSim/dpc3_traces/server_038.champsimtrace.xz
CPU 0 L1D next line prefetcher
Heartbeat CPU 0 instructions: 10000001 cycles: 3325004 heartbeat IPC: 3.00752 cumulative IPC: 3.00752 (Simulation time: 0 hr 1 min 41 sec) 
Heartbeat CPU 0 instructions: 20000003 cycles: 6653391 heartbeat IPC: 3.00446 cumulative IPC: 3.00599 (Simulation time: 0 hr 3 min 6 sec) 
Heartbeat CPU 0 instructions: 30000003 cycles: 9977503 heartbeat IPC: 3.00832 cumulative IPC: 3.00676 (Simulation time: 0 hr 4 min 32 sec) 
Heartbeat CPU 0 instructions: 40000001 cycles: 13305715 heartbeat IPC: 3.00462 cumulative IPC: 3.00623 (Simulation time: 0 hr 5 min 55 sec) 
Heartbeat CPU 0 instructions: 50000001 cycles: 16632505 heartbeat IPC: 3.0059 cumulative IPC: 3.00616 (Simulation time: 0 hr 7 min 18 sec) 

Warmup complete CPU 0 instructions: 50000001 cycles: 16632505 (Simulation time: 0 hr 7 min 18 sec) 

Heartbeat CPU 0 instructions: 60000002 cycles: 23133587 heartbeat IPC: 1.53821 cumulative IPC: 1.53821 (Simulation time: 0 hr 8 min 38 sec) 
Heartbeat CPU 0 instructions: 70000001 cycles: 29583134 heartbeat IPC: 1.5505 cumulative IPC: 1.54433 (Simulation time: 0 hr 9 min 55 sec) 
Heartbeat CPU 0 instructions: 80000000 cycles: 36047751 heartbeat IPC: 1.54688 cumulative IPC: 1.54518 (Simulation time: 0 hr 11 min 14 sec) 
Heartbeat CPU 0 instructions: 90000001 cycles: 42517203 heartbeat IPC: 1.54573 cumulative IPC: 1.54531 (Simulation time: 0 hr 12 min 29 sec) 
*** Reached end of trace for Core: 0 Repeating trace: /home/mbaradaran/ChampSim/dpc3_traces/server_038.champsimtrace.xz
Heartbeat CPU 0 instructions: 100000002 cycles: 49003179 heartbeat IPC: 1.54179 cumulative IPC: 1.54461 (Simulation time: 0 hr 13 min 42 sec) 
Finished CPU 0 instructions: 50000001 cycles: 32370674 cumulative IPC: 1.54461 (Simulation time: 0 hr 13 min 42 sec) 

ChampSim completed all CPUs

Region of Interest Statistics

CPU 0 cumulative IPC: 1.54461 instructions: 50000001 cycles: 32370674

SHEET
IPC : 1.54461

L1D TOTAL     ACCESS:   18850211  HIT:   17867411  MISS:     982800
L1D LOAD      ACCESS:    6436293  HIT:    5944199  MISS:     492094
L1D RFO       ACCESS:    6211855  HIT:    6146839  MISS:      65016
L1D PREFETCH  ACCESS:    6202063  HIT:    5776373  MISS:     425690
L1D WRITEBACK ACCESS:          0  HIT:          0  MISS:          0
L1D PREFETCH  REQUESTED:    6472411  ISSUED:    6321309  USEFUL:     118665  USELESS:     307028
L1D AVERAGE MISS LATENCY: 29.2733 cycles
L1D

SHEET
L1D-total_access : 18850211
L1D-total_hit : 17867411
L1D-total_miss : 982800
L1D-load_access : 6436293
L1D-load_hit : 5944199
L1D-load_miss : 492094
L1D-rfo_access : 6211855
L1D-rfo_hit : 6146839
L1D-rfo_miss : 65016
L1D-prefetch_access : 6202063
L1D-prefetch_hit : 5776373
L1D-prefetch_miss : 425690
L1D-writeback_access : 0
L1D-writeback_hit : 0
L1D-writeback_miss : 0
L1D-prefetch_requested : 6472411
L1D-prefetch_issued : 6321309
L1D-prefetch_useful : 118665
L1D-prefetch_useless : 307028
L1D-Avg_miss_latency : 29.2733
L1D-Morteza_fill_l2_prefetches : 0

L1I TOTAL     ACCESS:   16171666  HIT:   11426341  MISS:    4745325
L1I LOAD      ACCESS:    9195699  HIT:    8312910  MISS:     882789
L1I RFO       ACCESS:          0  HIT:          0  MISS:          0
L1I PREFETCH  ACCESS:    6975967  HIT:    3113431  MISS:    3862536
L1I WRITEBACK ACCESS:          0  HIT:          0  MISS:          0
L1I PREFETCH  REQUESTED:    7821182  ISSUED:    7821181  USEFUL:    3206912  USELESS:     655656
L1I AVERAGE MISS LATENCY: 13.6788 cycles
L1I

SHEET
L1I-total_access : 16171666
L1I-total_hit : 11426341
L1I-total_miss : 4745325
L1I-load_access : 9195699
L1I-load_hit : 8312910
L1I-load_miss : 882789
L1I-rfo_access : 0
L1I-rfo_hit : 0
L1I-rfo_miss : 0
L1I-prefetch_access : 6975967
L1I-prefetch_hit : 3113431
L1I-prefetch_miss : 3862536
L1I-writeback_access : 0
L1I-writeback_hit : 0
L1I-writeback_miss : 0
L1I-prefetch_requested : 7821182
L1I-prefetch_issued : 7821181
L1I-prefetch_useful : 3206912
L1I-prefetch_useless : 655656
L1I-Avg_miss_latency : 13.6788
L1I-Morteza_fill_l2_prefetches : 0

L2C TOTAL     ACCESS:    8332991  HIT:    8021877  MISS:     311114
L2C LOAD      ACCESS:     937351  HIT:     796945  MISS:     140406
L2C RFO       ACCESS:      64769  HIT:      36852  MISS:      27917
L2C PREFETCH  ACCESS:    7039069  HIT:    6897016  MISS:     142053
L2C WRITEBACK ACCESS:     291802  HIT:     291064  MISS:        738
L2C PREFETCH  REQUESTED:    7696448  ISSUED:    7663650  USEFUL:       6509  USELESS:     135375
L2C AVERAGE MISS LATENCY: 46.113 cycles
L2C

SHEET
L2C-total_access : 8332991
L2C-total_hit : 8021877
L2C-total_miss : 311114
L2C-load_access : 937351
L2C-load_hit : 796945
L2C-load_miss : 140406
L2C-rfo_access : 64769
L2C-rfo_hit : 36852
L2C-rfo_miss : 27917
L2C-prefetch_access : 7039069
L2C-prefetch_hit : 6897016
L2C-prefetch_miss : 142053
L2C-writeback_access : 291802
L2C-writeback_hit : 291064
L2C-writeback_miss : 738
L2C-prefetch_requested : 7696448
L2C-prefetch_issued : 7663650
L2C-prefetch_useful : 6509
L2C-prefetch_useless : 135375
L2C-Avg_miss_latency : 46.113
L2C-Morteza_fill_l2_prefetches : 2336513

LLC TOTAL     ACCESS:    2078851  HIT:    2020977  MISS:      57874
LLC LOAD      ACCESS:     140274  HIT:     127501  MISS:      12773
LLC RFO       ACCESS:      27917  HIT:      22881  MISS:       5036
LLC PREFETCH  ACCESS:    1767008  HIT:    1727415  MISS:      39593
LLC WRITEBACK ACCESS:     143652  HIT:     143180  MISS:        472
LLC PREFETCH  REQUESTED:          0  ISSUED:          0  USEFUL:       3806  USELESS:      34754
LLC AVERAGE MISS LATENCY: 170.858 cycles
LLC

SHEET
LLC-total_access : 2078851
LLC-total_hit : 2020977
LLC-total_miss : 57874
LLC-load_access : 140274
LLC-load_hit : 127501
LLC-load_miss : 12773
LLC-rfo_access : 27917
LLC-rfo_hit : 22881
LLC-rfo_miss : 5036
LLC-prefetch_access : 1767008
LLC-prefetch_hit : 1727415
LLC-prefetch_miss : 39593
LLC-writeback_access : 143652
LLC-writeback_hit : 143180
LLC-writeback_miss : 472
LLC-prefetch_requested : 0
LLC-prefetch_issued : 0
LLC-prefetch_useful : 3806
LLC-prefetch_useless : 34754
LLC-Avg_miss_latency : 170.858
LLC-Morteza_fill_l2_prefetches : 1604683

Major fault: 0 Minor fault: 5526



Printing Logs
statHeadFound: 716340
statHeadMissing: 263673
statStreamBufferHit: 13547420
statPrefetchEntryFound: 4975041
statCompactorMatch: 11285023
statStreamTrackerLookup: 14527433
statRecord: 3242410
statGetPointer: 980013
statEnqueuePrefetch: 15700640
statPrefetchQueueIsFull: 0
StreamBufferHitRate: 0.932541
Regions' size: 905
next_region_correct: 2549782
next_region_wrong: 691705
next_region_correct_prediction: 0.786609
statStreamBufferLookups: 1045975176
statL1iLookups: 125605120
statCompactorLookups: 522987588
morteza: start

SHEET
mana_table_access_counter : 8217433
hobp_table_access_counter : 21864693
sab_access_counter : 18522461
srq_access_counter : 16696244

morteza: end
CPU 0 L1D next line prefetcher final stats

DRAM Statistics
 CHANNEL 0
 RQ ROW_BUFFER_HIT:       9837  ROW_BUFFER_MISS:      47560
 DBUS_CONGESTED:      27686
 WQ ROW_BUFFER_HIT:       1259  ROW_BUFFER_MISS:      11928  FULL:          0

 AVG_CONGESTED_CYCLE: 5

CPU 0 Branch Prediction Accuracy: 99.9279% MPKI: 0.12968 Average ROB Occupancy at Mispredict: 169.749

Branch types
NOT_BRANCH: 41006308 82.0126%
BRANCH_DIRECT_JUMP: 541914 1.08383%
BRANCH_INDIRECT: 59690 0.11938%
BRANCH_CONDITIONAL: 5915845 11.8317%
BRANCH_DIRECT_CALL: 1003588 2.00718%
BRANCH_INDIRECT_CALL: 234499 0.468998%
BRANCH_RETURN: 1238071 2.47614%
BRANCH_OTHER: 0 0%

