Initialize SIGNATURE TABLE
ST_SET: 1
ST_WAY: 256
ST_TAG_BIT: 16
ST_TAG_MASK: ffff

Initialize PATTERN TABLE
PT_SET: 512
PT_WAY: 4
SIG_DELTA_BIT: 7
C_SIG_BIT: 4
C_DELTA_BIT: 4

Initialize PREFETCH FILTER
FILTER_SET: 1024
MANA initialize 
tds: 2 tdm: 2
size MANA SINGLE: 15.5 KB
size MANA NULTIPLE: 0 KB
size HOBPT: 0.703125 KB
size SRQ: 0.14502 KB
size SABs: 0.290039 KB
size prefetch queue: 0.453125 KB
total: 17.0913 KB

*** ChampSim Multicore Out-of-Order Simulator ***

Warmup Instructions: 50000000
Simulation Instructions: 50000000
Number of CPUs: 1
LLC sets: 2048
LLC ways: 16
Off-chip DRAM Size: 4096 MB Channels: 1 Width: 64-bit Data Rate: 3200 MT/s

CPU 0 runs /home/mbaradaran/ChampSim/dpc3_traces/server_003.champsimtrace.xz
CPU 0 L1D next line prefetcher
Heartbeat CPU 0 instructions: 10000002 cycles: 3221581 heartbeat IPC: 3.10407 cumulative IPC: 3.10407 (Simulation time: 0 hr 1 min 12 sec) 
Heartbeat CPU 0 instructions: 20000000 cycles: 6539955 heartbeat IPC: 3.01352 cumulative IPC: 3.05813 (Simulation time: 0 hr 2 min 26 sec) 
Heartbeat CPU 0 instructions: 30000000 cycles: 9748305 heartbeat IPC: 3.11687 cumulative IPC: 3.07746 (Simulation time: 0 hr 3 min 44 sec) 
Heartbeat CPU 0 instructions: 40000001 cycles: 13163800 heartbeat IPC: 2.92783 cumulative IPC: 3.03864 (Simulation time: 0 hr 5 min 18 sec) 
Heartbeat CPU 0 instructions: 50000003 cycles: 16882615 heartbeat IPC: 2.68903 cumulative IPC: 2.96163 (Simulation time: 0 hr 6 min 41 sec) 

Warmup complete CPU 0 instructions: 50000003 cycles: 16882615 (Simulation time: 0 hr 6 min 41 sec) 

Heartbeat CPU 0 instructions: 60000000 cycles: 26211329 heartbeat IPC: 1.07196 cumulative IPC: 1.07196 (Simulation time: 0 hr 7 min 53 sec) 
Heartbeat CPU 0 instructions: 70000003 cycles: 35554014 heartbeat IPC: 1.07036 cumulative IPC: 1.07116 (Simulation time: 0 hr 8 min 58 sec) 
Heartbeat CPU 0 instructions: 80000000 cycles: 46213406 heartbeat IPC: 0.93814 cumulative IPC: 1.02282 (Simulation time: 0 hr 10 min 15 sec) 
Heartbeat CPU 0 instructions: 90000001 cycles: 56966907 heartbeat IPC: 0.92993 cumulative IPC: 0.997897 (Simulation time: 0 hr 11 min 33 sec) 
Heartbeat CPU 0 instructions: 100000001 cycles: 68317737 heartbeat IPC: 0.880993 cumulative IPC: 0.972098 (Simulation time: 0 hr 12 min 47 sec) 
Finished CPU 0 instructions: 50000002 cycles: 51435123 cumulative IPC: 0.972098 (Simulation time: 0 hr 12 min 47 sec) 

ChampSim completed all CPUs

Region of Interest Statistics

CPU 0 cumulative IPC: 0.972098 instructions: 50000002 cycles: 51435123

SHEET
IPC : 0.972098

L1D TOTAL     ACCESS:   20143130  HIT:   19001908  MISS:    1141222
L1D LOAD      ACCESS:    7920119  HIT:    7391630  MISS:     528489
L1D RFO       ACCESS:    4561703  HIT:    4444311  MISS:     117392
L1D PREFETCH  ACCESS:    7661308  HIT:    7165967  MISS:     495341
L1D WRITEBACK ACCESS:          0  HIT:          0  MISS:          0
L1D PREFETCH  REQUESTED:    7979688  ISSUED:    7887360  USEFUL:     157070  USELESS:     338230
L1D AVERAGE MISS LATENCY: 53.5819 cycles
L1D

SHEET
L1D-total_access : 20143130
L1D-total_hit : 19001908
L1D-total_miss : 1141222
L1D-load_access : 7920119
L1D-load_hit : 7391630
L1D-load_miss : 528489
L1D-rfo_access : 4561703
L1D-rfo_hit : 4444311
L1D-rfo_miss : 117392
L1D-prefetch_access : 7661308
L1D-prefetch_hit : 7165967
L1D-prefetch_miss : 495341
L1D-writeback_access : 0
L1D-writeback_hit : 0
L1D-writeback_miss : 0
L1D-prefetch_requested : 7979688
L1D-prefetch_issued : 7887360
L1D-prefetch_useful : 157070
L1D-prefetch_useless : 338230
L1D-Avg_miss_latency : 53.5819
L1D-Morteza_fill_l2_prefetches : 0

L1I TOTAL     ACCESS:   14243037  HIT:   12823831  MISS:    1419206
L1I LOAD      ACCESS:    9293393  HIT:    8938500  MISS:     354893
L1I RFO       ACCESS:          0  HIT:          0  MISS:          0
L1I PREFETCH  ACCESS:    4949644  HIT:    3885331  MISS:    1064313
L1I WRITEBACK ACCESS:          0  HIT:          0  MISS:          0
L1I PREFETCH  REQUESTED:    5316696  ISSUED:    5290391  USEFUL:     682221  USELESS:     381955
L1I AVERAGE MISS LATENCY: 32.3929 cycles
L1I

SHEET
L1I-total_access : 14243037
L1I-total_hit : 12823831
L1I-total_miss : 1419206
L1I-load_access : 9293393
L1I-load_hit : 8938500
L1I-load_miss : 354893
L1I-rfo_access : 0
L1I-rfo_hit : 0
L1I-rfo_miss : 0
L1I-prefetch_access : 4949644
L1I-prefetch_hit : 3885331
L1I-prefetch_miss : 1064313
L1I-writeback_access : 0
L1I-writeback_hit : 0
L1I-writeback_miss : 0
L1I-prefetch_requested : 5316696
L1I-prefetch_issued : 5290391
L1I-prefetch_useful : 682221
L1I-prefetch_useless : 381955
L1I-Avg_miss_latency : 32.3929
L1I-Morteza_fill_l2_prefetches : 0

L2C TOTAL     ACCESS:    3454036  HIT:    2481454  MISS:     972582
L2C LOAD      ACCESS:     765872  HIT:     429666  MISS:     336206
L2C RFO       ACCESS:     114666  HIT:      41091  MISS:      73575
L2C PREFETCH  ACCESS:    2289231  HIT:    1727593  MISS:     561638
L2C WRITEBACK ACCESS:     284267  HIT:     283104  MISS:       1163
L2C PREFETCH  REQUESTED:    2732260  ISSUED:    2730979  USEFUL:      46494  USELESS:     513510
L2C AVERAGE MISS LATENCY: 75.9933 cycles
L2C

SHEET
L2C-total_access : 3454036
L2C-total_hit : 2481454
L2C-total_miss : 972582
L2C-load_access : 765872
L2C-load_hit : 429666
L2C-load_miss : 336206
L2C-rfo_access : 114666
L2C-rfo_hit : 41091
L2C-rfo_miss : 73575
L2C-prefetch_access : 2289231
L2C-prefetch_hit : 1727593
L2C-prefetch_miss : 561638
L2C-writeback_access : 284267
L2C-writeback_hit : 283104
L2C-writeback_miss : 1163
L2C-prefetch_requested : 2732260
L2C-prefetch_issued : 2730979
L2C-prefetch_useful : 46494
L2C-prefetch_useless : 513510
L2C-Avg_miss_latency : 75.9933
L2C-Morteza_fill_l2_prefetches : 613059

LLC TOTAL     ACCESS:    1906602  HIT:    1548448  MISS:     358154
LLC LOAD      ACCESS:     334662  HIT:     251782  MISS:      82880
LLC RFO       ACCESS:      73575  HIT:      31986  MISS:      41589
LLC PREFETCH  ACCESS:    1334190  HIT:    1101961  MISS:     232229
LLC WRITEBACK ACCESS:     164175  HIT:     162719  MISS:       1456
LLC PREFETCH  REQUESTED:          0  ISSUED:          0  USEFUL:      42298  USELESS:     181158
LLC AVERAGE MISS LATENCY: 179.966 cycles
LLC

SHEET
LLC-total_access : 1906602
LLC-total_hit : 1548448
LLC-total_miss : 358154
LLC-load_access : 334662
LLC-load_hit : 251782
LLC-load_miss : 82880
LLC-rfo_access : 73575
LLC-rfo_hit : 31986
LLC-rfo_miss : 41589
LLC-prefetch_access : 1334190
LLC-prefetch_hit : 1101961
LLC-prefetch_miss : 232229
LLC-writeback_access : 164175
LLC-writeback_hit : 162719
LLC-writeback_miss : 1456
LLC-prefetch_requested : 0
LLC-prefetch_issued : 0
LLC-prefetch_useful : 42298
LLC-prefetch_useless : 181158
LLC-Avg_miss_latency : 179.966
LLC-Morteza_fill_l2_prefetches : 675953

Major fault: 0 Minor fault: 7768



Printing Logs
statHeadFound: 637422
statHeadMissing: 1168407
statStreamBufferHit: 11984718
statPrefetchEntryFound: 3379462
statCompactorMatch: 12229550
statStreamTrackerLookup: 13790547
statRecord: 1560997
statGetPointer: 1805829
statEnqueuePrefetch: 10937800
statPrefetchQueueIsFull: 451
StreamBufferHitRate: 0.869053
Regions' size: 9234
next_region_correct: 1116977
next_region_wrong: 434768
next_region_correct_prediction: 0.71982
statStreamBufferLookups: 992919384
statL1iLookups: 87502400
statCompactorLookups: 496459692
morteza: start

SHEET
mana_table_access_counter : 4940892
hobp_table_access_counter : 16847232
sab_access_counter : 15364180
srq_access_counter : 12980325

morteza: end
CPU 0 L1D next line prefetcher final stats

DRAM Statistics
 CHANNEL 0
 RQ ROW_BUFFER_HIT:      79123  ROW_BUFFER_MISS:     277532
 DBUS_CONGESTED:     179616
 WQ ROW_BUFFER_HIT:      24343  ROW_BUFFER_MISS:      78087  FULL:          0

 AVG_CONGESTED_CYCLE: 5

CPU 0 Branch Prediction Accuracy: 95.439% MPKI: 9.02702 Average ROB Occupancy at Mispredict: 62.2942

Branch types
NOT_BRANCH: 40104086 80.2082%
BRANCH_DIRECT_JUMP: 497928 0.995856%
BRANCH_INDIRECT: 130587 0.261174%
BRANCH_CONDITIONAL: 7219017 14.438%
BRANCH_DIRECT_CALL: 625807 1.25161%
BRANCH_INDIRECT_CALL: 389787 0.779574%
BRANCH_RETURN: 1032747 2.06549%
BRANCH_OTHER: 0 0%

