Initialize SIGNATURE TABLE
ST_SET: 1
ST_WAY: 256
ST_TAG_BIT: 16
ST_TAG_MASK: ffff

Initialize PATTERN TABLE
PT_SET: 512
PT_WAY: 4
SIG_DELTA_BIT: 7
C_SIG_BIT: 4
C_DELTA_BIT: 4

Initialize PREFETCH FILTER
FILTER_SET: 1024
MANA initialize 
tds: 2 tdm: 2
size MANA SINGLE: 15.5 KB
size MANA NULTIPLE: 0 KB
size HOBPT: 0.703125 KB
size SRQ: 0.14502 KB
size SABs: 0.290039 KB
size prefetch queue: 0.453125 KB
total: 17.0913 KB

*** ChampSim Multicore Out-of-Order Simulator ***

Warmup Instructions: 50000000
Simulation Instructions: 50000000
Number of CPUs: 1
LLC sets: 2048
LLC ways: 16
Off-chip DRAM Size: 4096 MB Channels: 1 Width: 64-bit Data Rate: 3200 MT/s

CPU 0 runs /home/mbaradaran/ChampSim/dpc3_traces/server_025.champsimtrace.xz
CPU 0 L1D next line prefetcher
Heartbeat CPU 0 instructions: 10000003 cycles: 3528647 heartbeat IPC: 2.83395 cumulative IPC: 2.83395 (Simulation time: 0 hr 1 min 21 sec) 
Heartbeat CPU 0 instructions: 20000000 cycles: 7064463 heartbeat IPC: 2.8282 cumulative IPC: 2.83107 (Simulation time: 0 hr 2 min 41 sec) 
Heartbeat CPU 0 instructions: 30000001 cycles: 10592518 heartbeat IPC: 2.83442 cumulative IPC: 2.83219 (Simulation time: 0 hr 4 min 4 sec) 
Heartbeat CPU 0 instructions: 40000003 cycles: 14126683 heartbeat IPC: 2.82952 cumulative IPC: 2.83152 (Simulation time: 0 hr 5 min 24 sec) 
Heartbeat CPU 0 instructions: 50000001 cycles: 17658734 heartbeat IPC: 2.83122 cumulative IPC: 2.83146 (Simulation time: 0 hr 6 min 47 sec) 

Warmup complete CPU 0 instructions: 50000001 cycles: 17658734 (Simulation time: 0 hr 6 min 47 sec) 

Heartbeat CPU 0 instructions: 60000000 cycles: 25016687 heartbeat IPC: 1.35907 cumulative IPC: 1.35907 (Simulation time: 0 hr 8 min 6 sec) 
Heartbeat CPU 0 instructions: 70000000 cycles: 32496159 heartbeat IPC: 1.33699 cumulative IPC: 1.34794 (Simulation time: 0 hr 9 min 25 sec) 
Heartbeat CPU 0 instructions: 80000002 cycles: 39861188 heartbeat IPC: 1.35777 cumulative IPC: 1.3512 (Simulation time: 0 hr 10 min 45 sec) 
Heartbeat CPU 0 instructions: 90000001 cycles: 46762146 heartbeat IPC: 1.44907 cumulative IPC: 1.37441 (Simulation time: 0 hr 12 min 9 sec) 
Heartbeat CPU 0 instructions: 100000003 cycles: 53300752 heartbeat IPC: 1.52938 cumulative IPC: 1.40284 (Simulation time: 0 hr 13 min 29 sec) 
Finished CPU 0 instructions: 50000002 cycles: 35642018 cumulative IPC: 1.40284 (Simulation time: 0 hr 13 min 29 sec) 

ChampSim completed all CPUs

Region of Interest Statistics

CPU 0 cumulative IPC: 1.40284 instructions: 50000002 cycles: 35642018

SHEET
IPC : 1.40284

L1D TOTAL     ACCESS:   20524108  HIT:   19098075  MISS:    1426033
L1D LOAD      ACCESS:    7220058  HIT:    6602475  MISS:     617583
L1D RFO       ACCESS:    6393343  HIT:    6144865  MISS:     248478
L1D PREFETCH  ACCESS:    6910707  HIT:    6350735  MISS:     559972
L1D WRITEBACK ACCESS:          0  HIT:          0  MISS:          0
L1D PREFETCH  REQUESTED:    7260625  ISSUED:    7091328  USEFUL:     132417  USELESS:     427548
L1D AVERAGE MISS LATENCY: 22.8052 cycles
L1D

SHEET
L1D-total_access : 20524108
L1D-total_hit : 19098075
L1D-total_miss : 1426033
L1D-load_access : 7220058
L1D-load_hit : 6602475
L1D-load_miss : 617583
L1D-rfo_access : 6393343
L1D-rfo_hit : 6144865
L1D-rfo_miss : 248478
L1D-prefetch_access : 6910707
L1D-prefetch_hit : 6350735
L1D-prefetch_miss : 559972
L1D-writeback_access : 0
L1D-writeback_hit : 0
L1D-writeback_miss : 0
L1D-prefetch_requested : 7260625
L1D-prefetch_issued : 7091328
L1D-prefetch_useful : 132417
L1D-prefetch_useless : 427548
L1D-Avg_miss_latency : 22.8052
L1D-Morteza_fill_l2_prefetches : 0

L1I TOTAL     ACCESS:   15944998  HIT:   12382755  MISS:    3562243
L1I LOAD      ACCESS:    9263618  HIT:    8398106  MISS:     865512
L1I RFO       ACCESS:          0  HIT:          0  MISS:          0
L1I PREFETCH  ACCESS:    6681380  HIT:    3984649  MISS:    2696731
L1I WRITEBACK ACCESS:          0  HIT:          0  MISS:          0
L1I PREFETCH  REQUESTED:    7453366  ISSUED:    7451544  USEFUL:    1757366  USELESS:     939400
L1I AVERAGE MISS LATENCY: 16.0609 cycles
L1I

SHEET
L1I-total_access : 15944998
L1I-total_hit : 12382755
L1I-total_miss : 3562243
L1I-load_access : 9263618
L1I-load_hit : 8398106
L1I-load_miss : 865512
L1I-rfo_access : 0
L1I-rfo_hit : 0
L1I-rfo_miss : 0
L1I-prefetch_access : 6681380
L1I-prefetch_hit : 3984649
L1I-prefetch_miss : 2696731
L1I-writeback_access : 0
L1I-writeback_hit : 0
L1I-writeback_miss : 0
L1I-prefetch_requested : 7453366
L1I-prefetch_issued : 7451544
L1I-prefetch_useful : 1757366
L1I-prefetch_useless : 939400
L1I-Avg_miss_latency : 16.0609
L1I-Morteza_fill_l2_prefetches : 0

L2C TOTAL     ACCESS:    6799441  HIT:    6179675  MISS:     619766
L2C LOAD      ACCESS:    1175019  HIT:    1007097  MISS:     167922
L2C RFO       ACCESS:     246679  HIT:     172199  MISS:      74480
L2C PREFETCH  ACCESS:    4881092  HIT:    4507642  MISS:     373450
L2C WRITEBACK ACCESS:     496651  HIT:     492737  MISS:       3914
L2C PREFETCH  REQUESTED:    5395535  ISSUED:    5390733  USEFUL:      29283  USELESS:     343443
L2C AVERAGE MISS LATENCY: 38.7476 cycles
L2C

SHEET
L2C-total_access : 6799441
L2C-total_hit : 6179675
L2C-total_miss : 619766
L2C-load_access : 1175019
L2C-load_hit : 1007097
L2C-load_miss : 167922
L2C-rfo_access : 246679
L2C-rfo_hit : 172199
L2C-rfo_miss : 74480
L2C-prefetch_access : 4881092
L2C-prefetch_hit : 4507642
L2C-prefetch_miss : 373450
L2C-writeback_access : 496651
L2C-writeback_hit : 492737
L2C-writeback_miss : 3914
L2C-prefetch_requested : 5395535
L2C-prefetch_issued : 5390733
L2C-prefetch_useful : 29283
L2C-prefetch_useless : 343443
L2C-Avg_miss_latency : 38.7476
L2C-Morteza_fill_l2_prefetches : 1338048

LLC TOTAL     ACCESS:    2158729  HIT:    2129752  MISS:      28977
LLC LOAD      ACCESS:     167821  HIT:     164414  MISS:       3407
LLC RFO       ACCESS:      74480  HIT:      63752  MISS:      10728
LLC PREFETCH  ACCESS:    1791691  HIT:    1777081  MISS:      14610
LLC WRITEBACK ACCESS:     124737  HIT:     124505  MISS:        232
LLC PREFETCH  REQUESTED:          0  ISSUED:          0  USEFUL:       1301  USELESS:      12611
LLC AVERAGE MISS LATENCY: 179.707 cycles
LLC

SHEET
LLC-total_access : 2158729
LLC-total_hit : 2129752
LLC-total_miss : 28977
LLC-load_access : 167821
LLC-load_hit : 164414
LLC-load_miss : 3407
LLC-rfo_access : 74480
LLC-rfo_hit : 63752
LLC-rfo_miss : 10728
LLC-prefetch_access : 1791691
LLC-prefetch_hit : 1777081
LLC-prefetch_miss : 14610
LLC-writeback_access : 124737
LLC-writeback_hit : 124505
LLC-writeback_miss : 232
LLC-prefetch_requested : 0
LLC-prefetch_issued : 0
LLC-prefetch_useful : 1301
LLC-prefetch_useless : 12611
LLC-Avg_miss_latency : 179.707
LLC-Morteza_fill_l2_prefetches : 1423075

Major fault: 0 Minor fault: 2457



Printing Logs
statHeadFound: 1007698
statHeadMissing: 1085488
statStreamBufferHit: 12302026
statPrefetchEntryFound: 5126880
statCompactorMatch: 11748924
statStreamTrackerLookup: 14395212
statRecord: 2646288
statGetPointer: 2093186
statEnqueuePrefetch: 15180555
statPrefetchQueueIsFull: 1
StreamBufferHitRate: 0.854592
Regions' size: 2215
next_region_correct: 1854367
next_region_wrong: 789688
next_region_correct_prediction: 0.701335
statStreamBufferLookups: 1036455264
statL1iLookups: 121444440
statCompactorLookups: 518227632
morteza: start

SHEET
mana_table_access_counter : 7773151
hobp_table_access_counter : 24084777
sab_access_counter : 17428906
srq_access_counter : 15650950

morteza: end
CPU 0 L1D next line prefetcher final stats

DRAM Statistics
 CHANNEL 0
 RQ ROW_BUFFER_HIT:       9267  ROW_BUFFER_MISS:      19471
 DBUS_CONGESTED:      19416
 WQ ROW_BUFFER_HIT:       1351  ROW_BUFFER_MISS:      11685  FULL:          0

 AVG_CONGESTED_CYCLE: 6

CPU 0 Branch Prediction Accuracy: 99.8142% MPKI: 0.34676 Average ROB Occupancy at Mispredict: 151.88

Branch types
NOT_BRANCH: 40668799 81.3376%
BRANCH_DIRECT_JUMP: 531700 1.0634%
BRANCH_INDIRECT: 199025 0.39805%
BRANCH_CONDITIONAL: 6211478 12.423%
BRANCH_DIRECT_CALL: 1010910 2.02182%
BRANCH_INDIRECT_CALL: 183501 0.367002%
BRANCH_RETURN: 1194412 2.38882%
BRANCH_OTHER: 0 0%

