Initialize SIGNATURE TABLE
ST_SET: 1
ST_WAY: 256
ST_TAG_BIT: 16
ST_TAG_MASK: ffff

Initialize PATTERN TABLE
PT_SET: 512
PT_WAY: 4
SIG_DELTA_BIT: 7
C_SIG_BIT: 4
C_DELTA_BIT: 4

Initialize PREFETCH FILTER
FILTER_SET: 1024
MANA initialize 
tds: 2 tdm: 2
size MANA SINGLE: 15.5 KB
size MANA NULTIPLE: 0 KB
size HOBPT: 0.703125 KB
size SRQ: 0.14502 KB
size SABs: 0.290039 KB
size prefetch queue: 0.453125 KB
total: 17.0913 KB

*** ChampSim Multicore Out-of-Order Simulator ***

Warmup Instructions: 50000000
Simulation Instructions: 50000000
Number of CPUs: 1
LLC sets: 2048
LLC ways: 16
Off-chip DRAM Size: 4096 MB Channels: 1 Width: 64-bit Data Rate: 3200 MT/s

CPU 0 runs /home/mbaradaran/ChampSim/dpc3_traces/spec_gobmk_002.champsimtrace.xz
CPU 0 L1D next line prefetcher
Heartbeat CPU 0 instructions: 10000001 cycles: 3287543 heartbeat IPC: 3.04179 cumulative IPC: 3.04179 (Simulation time: 0 hr 1 min 11 sec) 
Heartbeat CPU 0 instructions: 20000000 cycles: 6619170 heartbeat IPC: 3.00154 cumulative IPC: 3.02153 (Simulation time: 0 hr 2 min 13 sec) 
Heartbeat CPU 0 instructions: 30000000 cycles: 9957180 heartbeat IPC: 2.9958 cumulative IPC: 3.0129 (Simulation time: 0 hr 3 min 17 sec) 
Heartbeat CPU 0 instructions: 40000000 cycles: 13266665 heartbeat IPC: 3.02162 cumulative IPC: 3.01508 (Simulation time: 0 hr 4 min 22 sec) 
Heartbeat CPU 0 instructions: 50000003 cycles: 16530290 heartbeat IPC: 3.06408 cumulative IPC: 3.02475 (Simulation time: 0 hr 5 min 24 sec) 

Warmup complete CPU 0 instructions: 50000003 cycles: 16530290 (Simulation time: 0 hr 5 min 24 sec) 

Heartbeat CPU 0 instructions: 60000003 cycles: 24181188 heartbeat IPC: 1.30704 cumulative IPC: 1.30704 (Simulation time: 0 hr 6 min 11 sec) 
Heartbeat CPU 0 instructions: 70000001 cycles: 31779809 heartbeat IPC: 1.31603 cumulative IPC: 1.31152 (Simulation time: 0 hr 6 min 56 sec) 
Heartbeat CPU 0 instructions: 80000000 cycles: 39242445 heartbeat IPC: 1.34001 cumulative IPC: 1.32088 (Simulation time: 0 hr 7 min 42 sec) 
Heartbeat CPU 0 instructions: 90000001 cycles: 46991807 heartbeat IPC: 1.29043 cumulative IPC: 1.31313 (Simulation time: 0 hr 8 min 24 sec) 
Heartbeat CPU 0 instructions: 100000003 cycles: 55008727 heartbeat IPC: 1.24736 cumulative IPC: 1.29943 (Simulation time: 0 hr 9 min 8 sec) 
Finished CPU 0 instructions: 50000000 cycles: 38478437 cumulative IPC: 1.29943 (Simulation time: 0 hr 9 min 8 sec) 

ChampSim completed all CPUs

Region of Interest Statistics

CPU 0 cumulative IPC: 1.29943 instructions: 50000000 cycles: 38478437

SHEET
IPC : 1.29943

L1D TOTAL     ACCESS:   17717258  HIT:   17594138  MISS:     123120
L1D LOAD      ACCESS:    6702948  HIT:    6668770  MISS:      34178
L1D RFO       ACCESS:    4390557  HIT:    4347878  MISS:      42679
L1D PREFETCH  ACCESS:    6623753  HIT:    6577490  MISS:      46263
L1D WRITEBACK ACCESS:          0  HIT:          0  MISS:          0
L1D PREFETCH  REQUESTED:    6705305  ISSUED:    6637941  USEFUL:      17197  USELESS:      29248
L1D AVERAGE MISS LATENCY: 50.2692 cycles
L1D

SHEET
L1D-total_access : 17717258
L1D-total_hit : 17594138
L1D-total_miss : 123120
L1D-load_access : 6702948
L1D-load_hit : 6668770
L1D-load_miss : 34178
L1D-rfo_access : 4390557
L1D-rfo_hit : 4347878
L1D-rfo_miss : 42679
L1D-prefetch_access : 6623753
L1D-prefetch_hit : 6577490
L1D-prefetch_miss : 46263
L1D-writeback_access : 0
L1D-writeback_hit : 0
L1D-writeback_miss : 0
L1D-prefetch_requested : 6705305
L1D-prefetch_issued : 6637941
L1D-prefetch_useful : 17197
L1D-prefetch_useless : 29248
L1D-Avg_miss_latency : 50.2692
L1D-Morteza_fill_l2_prefetches : 0

L1I TOTAL     ACCESS:   18106289  HIT:   16653380  MISS:    1452909
L1I LOAD      ACCESS:    8855464  HIT:    8578956  MISS:     276508
L1I RFO       ACCESS:          0  HIT:          0  MISS:          0
L1I PREFETCH  ACCESS:    9250825  HIT:    8074424  MISS:    1176401
L1I WRITEBACK ACCESS:          0  HIT:          0  MISS:          0
L1I PREFETCH  REQUESTED:    9931111  ISSUED:    9844011  USEFUL:     775948  USELESS:     400461
L1I AVERAGE MISS LATENCY: 14.1627 cycles
L1I

SHEET
L1I-total_access : 18106289
L1I-total_hit : 16653380
L1I-total_miss : 1452909
L1I-load_access : 8855464
L1I-load_hit : 8578956
L1I-load_miss : 276508
L1I-rfo_access : 0
L1I-rfo_hit : 0
L1I-rfo_miss : 0
L1I-prefetch_access : 9250825
L1I-prefetch_hit : 8074424
L1I-prefetch_miss : 1176401
L1I-writeback_access : 0
L1I-writeback_hit : 0
L1I-writeback_miss : 0
L1I-prefetch_requested : 9931111
L1I-prefetch_issued : 9844011
L1I-prefetch_useful : 775948
L1I-prefetch_useless : 400461
L1I-Avg_miss_latency : 14.1627
L1I-Morteza_fill_l2_prefetches : 0

L2C TOTAL     ACCESS:    2363197  HIT:    2325786  MISS:      37411
L2C LOAD      ACCESS:     252729  HIT:     238871  MISS:      13858
L2C RFO       ACCESS:      42582  HIT:      39833  MISS:       2749
L2C PREFETCH  ACCESS:    1993686  HIT:    1973009  MISS:      20677
L2C WRITEBACK ACCESS:      74200  HIT:      74073  MISS:        127
L2C PREFETCH  REQUESTED:    1472928  ISSUED:    1472909  USEFUL:       2292  USELESS:      18757
L2C AVERAGE MISS LATENCY: 125.055 cycles
L2C

SHEET
L2C-total_access : 2363197
L2C-total_hit : 2325786
L2C-total_miss : 37411
L2C-load_access : 252729
L2C-load_hit : 238871
L2C-load_miss : 13858
L2C-rfo_access : 42582
L2C-rfo_hit : 39833
L2C-rfo_miss : 2749
L2C-prefetch_access : 1993686
L2C-prefetch_hit : 1973009
L2C-prefetch_miss : 20677
L2C-writeback_access : 74200
L2C-writeback_hit : 74073
L2C-writeback_miss : 127
L2C-prefetch_requested : 1472928
L2C-prefetch_issued : 1472909
L2C-prefetch_useful : 2292
L2C-prefetch_useless : 18757
L2C-Avg_miss_latency : 125.055
L2C-Morteza_fill_l2_prefetches : 718425

LLC TOTAL     ACCESS:     146678  HIT:     112869  MISS:      33809
LLC LOAD      ACCESS:      13858  HIT:       5165  MISS:       8693
LLC RFO       ACCESS:       2749  HIT:       1142  MISS:       1607
LLC PREFETCH  ACCESS:     112099  HIT:      89141  MISS:      22958
LLC WRITEBACK ACCESS:      17972  HIT:      17421  MISS:        551
LLC PREFETCH  REQUESTED:          0  ISSUED:          0  USEFUL:       2325  USELESS:      20205
LLC AVERAGE MISS LATENCY: 183.758 cycles
LLC

SHEET
LLC-total_access : 146678
LLC-total_hit : 112869
LLC-total_miss : 33809
LLC-load_access : 13858
LLC-load_hit : 5165
LLC-load_miss : 8693
LLC-rfo_access : 2749
LLC-rfo_hit : 1142
LLC-rfo_miss : 1607
LLC-prefetch_access : 112100
LLC-prefetch_hit : 89142
LLC-prefetch_miss : 22958
LLC-writeback_access : 17972
LLC-writeback_hit : 17421
LLC-writeback_miss : 551
LLC-prefetch_requested : 0
LLC-prefetch_issued : 0
LLC-prefetch_useful : 2325
LLC-prefetch_useless : 20205
LLC-Avg_miss_latency : 183.758
LLC-Morteza_fill_l2_prefetches : 77020

Major fault: 0 Minor fault: 2776



Printing Logs
statHeadFound: 1104941
statHeadMissing: 578433
statStreamBufferHit: 11140576
statPrefetchEntryFound: 4732851
statCompactorMatch: 11401559
statStreamTrackerLookup: 12823950
statRecord: 1422391
statGetPointer: 1683374
statEnqueuePrefetch: 18892527
statPrefetchQueueIsFull: 37797
StreamBufferHitRate: 0.868732
Regions' size: 3203
next_region_correct: 766876
next_region_wrong: 652294
next_region_correct_prediction: 0.540369
statStreamBufferLookups: 923324400
statL1iLookups: 151140216
statCompactorLookups: 461662200
morteza: start

SHEET
mana_table_access_counter : 6193021
hobp_table_access_counter : 17193666
sab_access_counter : 15873427
srq_access_counter : 13025537

morteza: end
CPU 0 L1D next line prefetcher final stats

DRAM Statistics
 CHANNEL 0
 RQ ROW_BUFFER_HIT:       2657  ROW_BUFFER_MISS:      30601
 DBUS_CONGESTED:      17631
 WQ ROW_BUFFER_HIT:        766  ROW_BUFFER_MISS:      13366  FULL:          0

 AVG_CONGESTED_CYCLE: 4

CPU 0 Branch Prediction Accuracy: 93.9974% MPKI: 10.2447 Average ROB Occupancy at Mispredict: 38.0645

Branch types
NOT_BRANCH: 41466063 82.9321%
BRANCH_DIRECT_JUMP: 464313 0.928626%
BRANCH_INDIRECT: 32 6.4e-05%
BRANCH_CONDITIONAL: 7069455 14.1389%
BRANCH_DIRECT_CALL: 499587 0.999174%
BRANCH_INDIRECT_CALL: 342 0.000684%
BRANCH_RETURN: 499906 0.999812%
BRANCH_OTHER: 0 0%

