Initialize SIGNATURE TABLE
ST_SET: 1
ST_WAY: 256
ST_TAG_BIT: 16
ST_TAG_MASK: ffff

Initialize PATTERN TABLE
PT_SET: 512
PT_WAY: 4
SIG_DELTA_BIT: 7
C_SIG_BIT: 4
C_DELTA_BIT: 4

Initialize PREFETCH FILTER
FILTER_SET: 1024
MANA initialize 
tds: 2 tdm: 2
size MANA SINGLE: 15.5 KB
size MANA NULTIPLE: 0 KB
size HOBPT: 0.703125 KB
size SRQ: 0.14502 KB
size SABs: 0.290039 KB
size prefetch queue: 0.453125 KB
total: 17.0913 KB

*** ChampSim Multicore Out-of-Order Simulator ***

Warmup Instructions: 50000000
Simulation Instructions: 50000000
Number of CPUs: 1
LLC sets: 2048
LLC ways: 16
Off-chip DRAM Size: 4096 MB Channels: 1 Width: 64-bit Data Rate: 3200 MT/s

CPU 0 runs /home/mbaradaran/ChampSim/dpc3_traces/spec_gcc_002.champsimtrace.xz
CPU 0 L1D next line prefetcher
Heartbeat CPU 0 instructions: 10000002 cycles: 3549749 heartbeat IPC: 2.8171 cumulative IPC: 2.8171 (Simulation time: 0 hr 1 min 16 sec) 
Heartbeat CPU 0 instructions: 20000000 cycles: 7123046 heartbeat IPC: 2.79854 cumulative IPC: 2.80779 (Simulation time: 0 hr 2 min 28 sec) 
Heartbeat CPU 0 instructions: 30000000 cycles: 10766938 heartbeat IPC: 2.74432 cumulative IPC: 2.78631 (Simulation time: 0 hr 3 min 48 sec) 
Heartbeat CPU 0 instructions: 40000000 cycles: 14321233 heartbeat IPC: 2.8135 cumulative IPC: 2.79306 (Simulation time: 0 hr 5 min 0 sec) 
Heartbeat CPU 0 instructions: 50000002 cycles: 17812405 heartbeat IPC: 2.86437 cumulative IPC: 2.80703 (Simulation time: 0 hr 6 min 8 sec) 

Warmup complete CPU 0 instructions: 50000002 cycles: 17812405 (Simulation time: 0 hr 6 min 8 sec) 

Heartbeat CPU 0 instructions: 60000001 cycles: 57607273 heartbeat IPC: 0.251289 cumulative IPC: 0.251289 (Simulation time: 0 hr 8 min 31 sec) 
Heartbeat CPU 0 instructions: 70000001 cycles: 89801779 heartbeat IPC: 0.310612 cumulative IPC: 0.277819 (Simulation time: 0 hr 10 min 34 sec) 
Heartbeat CPU 0 instructions: 80000002 cycles: 138959212 heartbeat IPC: 0.203428 cumulative IPC: 0.247633 (Simulation time: 0 hr 13 min 14 sec) 
Heartbeat CPU 0 instructions: 90000001 cycles: 183762310 heartbeat IPC: 0.223199 cumulative IPC: 0.241037 (Simulation time: 0 hr 15 min 45 sec) 
Heartbeat CPU 0 instructions: 100000000 cycles: 215652187 heartbeat IPC: 0.313579 cumulative IPC: 0.25273 (Simulation time: 0 hr 17 min 45 sec) 
Finished CPU 0 instructions: 50000002 cycles: 197839790 cumulative IPC: 0.25273 (Simulation time: 0 hr 17 min 45 sec) 

ChampSim completed all CPUs

Region of Interest Statistics

CPU 0 cumulative IPC: 0.25273 instructions: 50000002 cycles: 197839790

SHEET
IPC : 0.25273

L1D TOTAL     ACCESS:   18364159  HIT:   13130407  MISS:    5233752
L1D LOAD      ACCESS:    6415698  HIT:    5359970  MISS:    1055728
L1D RFO       ACCESS:    7041804  HIT:    3441034  MISS:    3600770
L1D PREFETCH  ACCESS:    4906657  HIT:    4329403  MISS:     577254
L1D WRITEBACK ACCESS:          0  HIT:          0  MISS:          0
L1D PREFETCH  REQUESTED:    6436336  ISSUED:    6367496  USEFUL:     417411  USELESS:     160059
L1D AVERAGE MISS LATENCY: 333.995 cycles
L1D

SHEET
L1D-total_access : 18364159
L1D-total_hit : 13130407
L1D-total_miss : 5233752
L1D-load_access : 6415698
L1D-load_hit : 5359970
L1D-load_miss : 1055728
L1D-rfo_access : 7041804
L1D-rfo_hit : 3441034
L1D-rfo_miss : 3600770
L1D-prefetch_access : 4906657
L1D-prefetch_hit : 4329403
L1D-prefetch_miss : 577254
L1D-writeback_access : 0
L1D-writeback_hit : 0
L1D-writeback_miss : 0
L1D-prefetch_requested : 6436336
L1D-prefetch_issued : 6367496
L1D-prefetch_useful : 417411
L1D-prefetch_useless : 160059
L1D-Avg_miss_latency : 333.995
L1D-Morteza_fill_l2_prefetches : 0

L1I TOTAL     ACCESS:   15565756  HIT:   14613065  MISS:     952691
L1I LOAD      ACCESS:   12086889  HIT:   11836754  MISS:     250135
L1I RFO       ACCESS:          0  HIT:          0  MISS:          0
L1I PREFETCH  ACCESS:    3478867  HIT:    2776311  MISS:     702556
L1I WRITEBACK ACCESS:          0  HIT:          0  MISS:          0
L1I PREFETCH  REQUESTED:    3836421  ISSUED:    3787467  USEFUL:     460705  USELESS:     241839
L1I AVERAGE MISS LATENCY: 57.0483 cycles
L1I

SHEET
L1I-total_access : 15565756
L1I-total_hit : 14613065
L1I-total_miss : 952691
L1I-load_access : 12086889
L1I-load_hit : 11836754
L1I-load_miss : 250135
L1I-rfo_access : 0
L1I-rfo_hit : 0
L1I-rfo_miss : 0
L1I-prefetch_access : 3478867
L1I-prefetch_hit : 2776311
L1I-prefetch_miss : 702556
L1I-writeback_access : 0
L1I-writeback_hit : 0
L1I-writeback_miss : 0
L1I-prefetch_requested : 3836421
L1I-prefetch_issued : 3787467
L1I-prefetch_useful : 460705
L1I-prefetch_useless : 241839
L1I-Avg_miss_latency : 57.0483
L1I-Morteza_fill_l2_prefetches : 0

L2C TOTAL     ACCESS:   10339696  HIT:    5051998  MISS:    5287698
L2C LOAD      ACCESS:     427231  HIT:     216046  MISS:     211185
L2C RFO       ACCESS:    3599155  HIT:      12515  MISS:    3586640
L2C PREFETCH  ACCESS:    2587809  HIT:    1098047  MISS:    1489762
L2C WRITEBACK ACCESS:    3725501  HIT:    3725390  MISS:        111
L2C PREFETCH  REQUESTED:    3172827  ISSUED:    3172812  USEFUL:      51390  USELESS:    1438546
L2C AVERAGE MISS LATENCY: 345.01 cycles
L2C

SHEET
L2C-total_access : 10339696
L2C-total_hit : 5051998
L2C-total_miss : 5287698
L2C-load_access : 427231
L2C-load_hit : 216046
L2C-load_miss : 211185
L2C-rfo_access : 3599155
L2C-rfo_hit : 12515
L2C-rfo_miss : 3586640
L2C-prefetch_access : 2587809
L2C-prefetch_hit : 1098047
L2C-prefetch_miss : 1489762
L2C-writeback_access : 3725501
L2C-writeback_hit : 3725390
L2C-writeback_miss : 111
L2C-prefetch_requested : 3172827
L2C-prefetch_issued : 3172812
L2C-prefetch_useful : 51390
L2C-prefetch_useless : 1438546
L2C-Avg_miss_latency : 345.01
L2C-Morteza_fill_l2_prefetches : 329395

LLC TOTAL     ACCESS:    9974354  HIT:    6133549  MISS:    3840805
LLC LOAD      ACCESS:     211000  HIT:     125573  MISS:      85427
LLC RFO       ACCESS:    3586640  HIT:     603099  MISS:    2983541
LLC PREFETCH  ACCESS:    2510612  HIT:    1738775  MISS:     771837
LLC WRITEBACK ACCESS:    3666102  HIT:    3666102  MISS:          0
LLC PREFETCH  REQUESTED:          0  ISSUED:          0  USEFUL:     152535  USELESS:     614662
LLC AVERAGE MISS LATENCY: 455.923 cycles
LLC

SHEET
LLC-total_access : 9974354
LLC-total_hit : 6133549
LLC-total_miss : 3840805
LLC-load_access : 211000
LLC-load_hit : 125573
LLC-load_miss : 85427
LLC-rfo_access : 3586641
LLC-rfo_hit : 603099
LLC-rfo_miss : 2983542
LLC-prefetch_access : 2510612
LLC-prefetch_hit : 1738775
LLC-prefetch_miss : 771837
LLC-writeback_access : 3666102
LLC-writeback_hit : 3666102
LLC-writeback_miss : 0
LLC-prefetch_requested : 0
LLC-prefetch_issued : 0
LLC-prefetch_useful : 152535
LLC-prefetch_useless : 614662
LLC-Avg_miss_latency : 455.923
LLC-Morteza_fill_l2_prefetches : 977459

Major fault: 0 Minor fault: 4152



Printing Logs
statHeadFound: 492656
statHeadMissing: 4519599
statStreamBufferHit: 8093614
statPrefetchEntryFound: 2345489
statCompactorMatch: 12211882
statStreamTrackerLookup: 13105869
statRecord: 893987
statGetPointer: 5012255
statEnqueuePrefetch: 7249228
statPrefetchQueueIsFull: 806
StreamBufferHitRate: 0.617556
Regions' size: 1458
next_region_correct: 528574
next_region_wrong: 363937
next_region_correct_prediction: 0.592232
statStreamBufferLookups: 943622568
statL1iLookups: 57993824
statCompactorLookups: 471811284
morteza: start

SHEET
mana_table_access_counter : 3240264
hobp_table_access_counter : 25971232
sab_access_counter : 10439103
srq_access_counter : 12234774

morteza: end
CPU 0 L1D next line prefetcher final stats

DRAM Statistics
 CHANNEL 0
 RQ ROW_BUFFER_HIT:    1016038  ROW_BUFFER_MISS:    2821749
 DBUS_CONGESTED:    5526255
 WQ ROW_BUFFER_HIT:     944905  ROW_BUFFER_MISS:    2214929  FULL:          0

 AVG_CONGESTED_CYCLE: 6

CPU 0 Branch Prediction Accuracy: 99.5987% MPKI: 0.82446 Average ROB Occupancy at Mispredict: 116.515

Branch types
NOT_BRANCH: 39726807 79.4536%
BRANCH_DIRECT_JUMP: 391439 0.782878%
BRANCH_INDIRECT: 62076 0.124152%
BRANCH_CONDITIONAL: 8421541 16.8431%
BRANCH_DIRECT_CALL: 672962 1.34592%
BRANCH_INDIRECT_CALL: 26115 0.05223%
BRANCH_RETURN: 699082 1.39816%
BRANCH_OTHER: 0 0%

