Initialize SIGNATURE TABLE
ST_SET: 1
ST_WAY: 256
ST_TAG_BIT: 16
ST_TAG_MASK: ffff

Initialize PATTERN TABLE
PT_SET: 512
PT_WAY: 4
SIG_DELTA_BIT: 7
C_SIG_BIT: 4
C_DELTA_BIT: 4

Initialize PREFETCH FILTER
FILTER_SET: 1024
MANA initialize 
tds: 2 tdm: 2
size MANA SINGLE: 15.5 KB
size MANA NULTIPLE: 0 KB
size HOBPT: 0.703125 KB
size SRQ: 0.14502 KB
size SABs: 0.290039 KB
size prefetch queue: 0.453125 KB
total: 17.0913 KB

*** ChampSim Multicore Out-of-Order Simulator ***

Warmup Instructions: 50000000
Simulation Instructions: 50000000
Number of CPUs: 1
LLC sets: 2048
LLC ways: 16
Off-chip DRAM Size: 4096 MB Channels: 1 Width: 64-bit Data Rate: 3200 MT/s

CPU 0 runs /home/mbaradaran/ChampSim/dpc3_traces/spec_gobmk_001.champsimtrace.xz
CPU 0 L1D next line prefetcher
Heartbeat CPU 0 instructions: 10000003 cycles: 3507090 heartbeat IPC: 2.85137 cumulative IPC: 2.85137 (Simulation time: 0 hr 1 min 10 sec) 
Heartbeat CPU 0 instructions: 20000002 cycles: 6987398 heartbeat IPC: 2.87331 cumulative IPC: 2.8623 (Simulation time: 0 hr 2 min 15 sec) 
Heartbeat CPU 0 instructions: 30000002 cycles: 10506816 heartbeat IPC: 2.84138 cumulative IPC: 2.85529 (Simulation time: 0 hr 3 min 21 sec) 
Heartbeat CPU 0 instructions: 40000001 cycles: 14026109 heartbeat IPC: 2.84148 cumulative IPC: 2.85182 (Simulation time: 0 hr 4 min 26 sec) 
Heartbeat CPU 0 instructions: 50000001 cycles: 17566255 heartbeat IPC: 2.82474 cumulative IPC: 2.84637 (Simulation time: 0 hr 5 min 26 sec) 

Warmup complete CPU 0 instructions: 50000001 cycles: 17566255 (Simulation time: 0 hr 5 min 26 sec) 

Heartbeat CPU 0 instructions: 60000000 cycles: 26480689 heartbeat IPC: 1.12178 cumulative IPC: 1.12178 (Simulation time: 0 hr 6 min 14 sec) 
Heartbeat CPU 0 instructions: 70000002 cycles: 35082622 heartbeat IPC: 1.16253 cumulative IPC: 1.14179 (Simulation time: 0 hr 7 min 0 sec) 
Heartbeat CPU 0 instructions: 80000003 cycles: 44052660 heartbeat IPC: 1.11482 cumulative IPC: 1.13266 (Simulation time: 0 hr 7 min 47 sec) 
Heartbeat CPU 0 instructions: 90000001 cycles: 52675735 heartbeat IPC: 1.15968 cumulative IPC: 1.13929 (Simulation time: 0 hr 8 min 33 sec) 
Heartbeat CPU 0 instructions: 100000003 cycles: 61654388 heartbeat IPC: 1.11375 cumulative IPC: 1.13409 (Simulation time: 0 hr 9 min 19 sec) 
Finished CPU 0 instructions: 50000002 cycles: 44088133 cumulative IPC: 1.13409 (Simulation time: 0 hr 9 min 19 sec) 

ChampSim completed all CPUs

Region of Interest Statistics

CPU 0 cumulative IPC: 1.13409 instructions: 50000002 cycles: 44088133

SHEET
IPC : 1.13409

L1D TOTAL     ACCESS:   18043633  HIT:   17664096  MISS:     379537
L1D LOAD      ACCESS:    7239595  HIT:    7104533  MISS:     135062
L1D RFO       ACCESS:    3703549  HIT:    3599037  MISS:     104512
L1D PREFETCH  ACCESS:    7100489  HIT:    6960526  MISS:     139963
L1D WRITEBACK ACCESS:          0  HIT:          0  MISS:          0
L1D PREFETCH  REQUESTED:    7244788  ISSUED:    7162020  USEFUL:      45273  USELESS:      94695
L1D AVERAGE MISS LATENCY: 33.7996 cycles
L1D

SHEET
L1D-total_access : 18043633
L1D-total_hit : 17664096
L1D-total_miss : 379537
L1D-load_access : 7239595
L1D-load_hit : 7104533
L1D-load_miss : 135062
L1D-rfo_access : 3703549
L1D-rfo_hit : 3599037
L1D-rfo_miss : 104512
L1D-prefetch_access : 7100489
L1D-prefetch_hit : 6960526
L1D-prefetch_miss : 139963
L1D-writeback_access : 0
L1D-writeback_hit : 0
L1D-writeback_miss : 0
L1D-prefetch_requested : 7244788
L1D-prefetch_issued : 7162020
L1D-prefetch_useful : 45273
L1D-prefetch_useless : 94695
L1D-Avg_miss_latency : 33.7996
L1D-Morteza_fill_l2_prefetches : 0

L1I TOTAL     ACCESS:   15530562  HIT:   14506933  MISS:    1023629
L1I LOAD      ACCESS:    8959947  HIT:    8769476  MISS:     190471
L1I RFO       ACCESS:          0  HIT:          0  MISS:          0
L1I PREFETCH  ACCESS:    6570615  HIT:    5737457  MISS:     833158
L1I WRITEBACK ACCESS:          0  HIT:          0  MISS:          0
L1I PREFETCH  REQUESTED:    7038876  ISSUED:    6979210  USEFUL:     546376  USELESS:     286777
L1I AVERAGE MISS LATENCY: 14.6536 cycles
L1I

SHEET
L1I-total_access : 15530562
L1I-total_hit : 14506933
L1I-total_miss : 1023629
L1I-load_access : 8959947
L1I-load_hit : 8769476
L1I-load_miss : 190471
L1I-rfo_access : 0
L1I-rfo_hit : 0
L1I-rfo_miss : 0
L1I-prefetch_access : 6570615
L1I-prefetch_hit : 5737457
L1I-prefetch_miss : 833158
L1I-writeback_access : 0
L1I-writeback_hit : 0
L1I-writeback_miss : 0
L1I-prefetch_requested : 7038876
L1I-prefetch_issued : 6979210
L1I-prefetch_useful : 546376
L1I-prefetch_useless : 286777
L1I-Avg_miss_latency : 14.6536
L1I-Morteza_fill_l2_prefetches : 0

L2C TOTAL     ACCESS:    2124172  HIT:    2000319  MISS:     123853
L2C LOAD      ACCESS:     262148  HIT:     226845  MISS:      35303
L2C RFO       ACCESS:     104185  HIT:      70250  MISS:      33935
L2C PREFETCH  ACCESS:    1618540  HIT:    1563992  MISS:      54548
L2C WRITEBACK ACCESS:     139299  HIT:     139232  MISS:         67
L2C PREFETCH  REQUESTED:    1290950  ISSUED:    1290830  USEFUL:       4778  USELESS:      50115
L2C AVERAGE MISS LATENCY: 66.4526 cycles
L2C

SHEET
L2C-total_access : 2124172
L2C-total_hit : 2000319
L2C-total_miss : 123853
L2C-load_access : 262148
L2C-load_hit : 226845
L2C-load_miss : 35303
L2C-rfo_access : 104185
L2C-rfo_hit : 70250
L2C-rfo_miss : 33935
L2C-prefetch_access : 1618540
L2C-prefetch_hit : 1563992
L2C-prefetch_miss : 54548
L2C-writeback_access : 139299
L2C-writeback_hit : 139232
L2C-writeback_miss : 67
L2C-prefetch_requested : 1290950
L2C-prefetch_issued : 1290830
L2C-prefetch_useful : 4778
L2C-prefetch_useless : 50115
L2C-Avg_miss_latency : 66.4526
L2C-Morteza_fill_l2_prefetches : 589725

LLC TOTAL     ACCESS:     305353  HIT:     267086  MISS:      38267
LLC LOAD      ACCESS:      35299  HIT:      27014  MISS:       8285
LLC RFO       ACCESS:      33935  HIT:      26643  MISS:       7292
LLC PREFETCH  ACCESS:     191409  HIT:     169026  MISS:      22383
LLC WRITEBACK ACCESS:      44710  HIT:      44403  MISS:        307
LLC PREFETCH  REQUESTED:          0  ISSUED:          0  USEFUL:       1437  USELESS:      19122
LLC AVERAGE MISS LATENCY: 179.263 cycles
LLC

SHEET
LLC-total_access : 305353
LLC-total_hit : 267086
LLC-total_miss : 38267
LLC-load_access : 35299
LLC-load_hit : 27014
LLC-load_miss : 8285
LLC-rfo_access : 33935
LLC-rfo_hit : 26643
LLC-rfo_miss : 7292
LLC-prefetch_access : 191409
LLC-prefetch_hit : 169026
LLC-prefetch_miss : 22383
LLC-writeback_access : 44710
LLC-writeback_hit : 44403
LLC-writeback_miss : 307
LLC-prefetch_requested : 0
LLC-prefetch_issued : 0
LLC-prefetch_useful : 1437
LLC-prefetch_useless : 19122
LLC-Avg_miss_latency : 179.263
LLC-Morteza_fill_l2_prefetches : 125538

Major fault: 0 Minor fault: 4156



Printing Logs
statHeadFound: 782163
statHeadMissing: 290504
statStreamBufferHit: 11747847
statPrefetchEntryFound: 3377937
statCompactorMatch: 11791401
statStreamTrackerLookup: 12820514
statRecord: 1029113
statGetPointer: 1072667
statEnqueuePrefetch: 13167740
statPrefetchQueueIsFull: 8975
StreamBufferHitRate: 0.916332
Regions' size: 3111
next_region_correct: 542513
next_region_wrong: 483471
next_region_correct_prediction: 0.528773
statStreamBufferLookups: 923077008
statL1iLookups: 105341920
statCompactorLookups: 461538504
morteza: start

SHEET
mana_table_access_counter : 4416007
hobp_table_access_counter : 11793991
sab_access_counter : 15125784
srq_access_counter : 12497619

morteza: end
CPU 0 L1D next line prefetcher final stats

DRAM Statistics
 CHANNEL 0
 RQ ROW_BUFFER_HIT:       5595  ROW_BUFFER_MISS:      32362
 DBUS_CONGESTED:      21874
 WQ ROW_BUFFER_HIT:       1718  ROW_BUFFER_MISS:      15396  FULL:          0

 AVG_CONGESTED_CYCLE: 4

CPU 0 Branch Prediction Accuracy: 94.7729% MPKI: 9.72684 Average ROB Occupancy at Mispredict: 52.6875

Branch types
NOT_BRANCH: 40695383 81.3908%
BRANCH_DIRECT_JUMP: 422107 0.844214%
BRANCH_INDIRECT: 65 0.00013%
BRANCH_CONDITIONAL: 8105006 16.21%
BRANCH_DIRECT_CALL: 374913 0.749826%
BRANCH_INDIRECT_CALL: 13657 0.027314%
BRANCH_RETURN: 388556 0.777112%
BRANCH_OTHER: 0 0%

