Initialize SIGNATURE TABLE
ST_SET: 1
ST_WAY: 256
ST_TAG_BIT: 16
ST_TAG_MASK: ffff

Initialize PATTERN TABLE
PT_SET: 512
PT_WAY: 4
SIG_DELTA_BIT: 7
C_SIG_BIT: 4
C_DELTA_BIT: 4

Initialize PREFETCH FILTER
FILTER_SET: 1024
MANA initialize 
tds: 2 tdm: 2
size MANA SINGLE: 15.5 KB
size MANA NULTIPLE: 0 KB
size HOBPT: 0.703125 KB
size SRQ: 0.14502 KB
size SABs: 0.290039 KB
size prefetch queue: 0.453125 KB
total: 17.0913 KB

*** ChampSim Multicore Out-of-Order Simulator ***

Warmup Instructions: 50000000
Simulation Instructions: 50000000
Number of CPUs: 1
LLC sets: 2048
LLC ways: 16
Off-chip DRAM Size: 4096 MB Channels: 1 Width: 64-bit Data Rate: 3200 MT/s

CPU 0 runs /home/mbaradaran/ChampSim/dpc3_traces/spec_gcc_003.champsimtrace.xz
CPU 0 L1D next line prefetcher
Heartbeat CPU 0 instructions: 10000001 cycles: 3480643 heartbeat IPC: 2.87303 cumulative IPC: 2.87303 (Simulation time: 0 hr 1 min 15 sec) 
Heartbeat CPU 0 instructions: 20000000 cycles: 6952052 heartbeat IPC: 2.88067 cumulative IPC: 2.87685 (Simulation time: 0 hr 2 min 20 sec) 
Heartbeat CPU 0 instructions: 30000002 cycles: 10396982 heartbeat IPC: 2.90282 cumulative IPC: 2.88545 (Simulation time: 0 hr 3 min 28 sec) 
Heartbeat CPU 0 instructions: 40000000 cycles: 13864655 heartbeat IPC: 2.88378 cumulative IPC: 2.88503 (Simulation time: 0 hr 4 min 34 sec) 
Heartbeat CPU 0 instructions: 50000001 cycles: 17175230 heartbeat IPC: 3.02062 cumulative IPC: 2.91117 (Simulation time: 0 hr 5 min 39 sec) 

Warmup complete CPU 0 instructions: 50000001 cycles: 17175230 (Simulation time: 0 hr 5 min 39 sec) 

Heartbeat CPU 0 instructions: 60000000 cycles: 57759152 heartbeat IPC: 0.246403 cumulative IPC: 0.246403 (Simulation time: 0 hr 8 min 6 sec) 
Heartbeat CPU 0 instructions: 70000000 cycles: 101317016 heartbeat IPC: 0.22958 cumulative IPC: 0.237694 (Simulation time: 0 hr 10 min 36 sec) 
Heartbeat CPU 0 instructions: 80000002 cycles: 145652057 heartbeat IPC: 0.225555 cumulative IPC: 0.233505 (Simulation time: 0 hr 13 min 5 sec) 
Heartbeat CPU 0 instructions: 90000002 cycles: 183114289 heartbeat IPC: 0.266935 cumulative IPC: 0.241052 (Simulation time: 0 hr 15 min 15 sec) 
Heartbeat CPU 0 instructions: 100000001 cycles: 229893598 heartbeat IPC: 0.21377 cumulative IPC: 0.235053 (Simulation time: 0 hr 17 min 51 sec) 
Finished CPU 0 instructions: 50000000 cycles: 212718368 cumulative IPC: 0.235053 (Simulation time: 0 hr 17 min 51 sec) 

ChampSim completed all CPUs

Region of Interest Statistics

CPU 0 cumulative IPC: 0.235053 instructions: 50000000 cycles: 212718368

SHEET
IPC : 0.235053

L1D TOTAL     ACCESS:   17053879  HIT:   11329402  MISS:    5724477
L1D LOAD      ACCESS:    4658045  HIT:    4275540  MISS:     382505
L1D RFO       ACCESS:    8223182  HIT:    3171483  MISS:    5051699
L1D PREFETCH  ACCESS:    4172652  HIT:    3882379  MISS:     290273
L1D WRITEBACK ACCESS:          0  HIT:          0  MISS:          0
L1D PREFETCH  REQUESTED:    4676939  ISSUED:    4618894  USEFUL:     152697  USELESS:     137755
L1D AVERAGE MISS LATENCY: 502.784 cycles
L1D

SHEET
L1D-total_access : 17053879
L1D-total_hit : 11329402
L1D-total_miss : 5724477
L1D-load_access : 4658045
L1D-load_hit : 4275540
L1D-load_miss : 382505
L1D-rfo_access : 8223182
L1D-rfo_hit : 3171483
L1D-rfo_miss : 5051699
L1D-prefetch_access : 4172652
L1D-prefetch_hit : 3882379
L1D-prefetch_miss : 290273
L1D-writeback_access : 0
L1D-writeback_hit : 0
L1D-writeback_miss : 0
L1D-prefetch_requested : 4676939
L1D-prefetch_issued : 4618894
L1D-prefetch_useful : 152697
L1D-prefetch_useless : 137755
L1D-Avg_miss_latency : 502.784
L1D-Morteza_fill_l2_prefetches : 0

L1I TOTAL     ACCESS:   14851011  HIT:   13685894  MISS:    1165117
L1I LOAD      ACCESS:   11269055  HIT:   10958539  MISS:     310516
L1I RFO       ACCESS:          0  HIT:          0  MISS:          0
L1I PREFETCH  ACCESS:    3581956  HIT:    2727355  MISS:     854601
L1I WRITEBACK ACCESS:          0  HIT:          0  MISS:          0
L1I PREFETCH  REQUESTED:    4002136  ISSUED:    3932926  USEFUL:     550008  USELESS:     304573
L1I AVERAGE MISS LATENCY: 53.1887 cycles
L1I

SHEET
L1I-total_access : 14851011
L1I-total_hit : 13685894
L1I-total_miss : 1165117
L1I-load_access : 11269055
L1I-load_hit : 10958539
L1I-load_miss : 310516
L1I-rfo_access : 0
L1I-rfo_hit : 0
L1I-rfo_miss : 0
L1I-prefetch_access : 3581956
L1I-prefetch_hit : 2727355
L1I-prefetch_miss : 854601
L1I-writeback_access : 0
L1I-writeback_hit : 0
L1I-writeback_miss : 0
L1I-prefetch_requested : 4002136
L1I-prefetch_issued : 3932926
L1I-prefetch_useful : 550008
L1I-prefetch_useless : 304573
L1I-Avg_miss_latency : 53.1887
L1I-Morteza_fill_l2_prefetches : 0

L2C TOTAL     ACCESS:   12391901  HIT:    6361232  MISS:    6030669
L2C LOAD      ACCESS:     424219  HIT:     173157  MISS:     251062
L2C RFO       ACCESS:    5049896  HIT:       6490  MISS:    5043406
L2C PREFETCH  ACCESS:    1759880  HIT:    1023849  MISS:     736031
L2C WRITEBACK ACCESS:    5157906  HIT:    5157736  MISS:        170
L2C PREFETCH  REQUESTED:    2063293  ISSUED:    2063258  USEFUL:      63489  USELESS:     669350
L2C AVERAGE MISS LATENCY: 474.467 cycles
L2C

SHEET
L2C-total_access : 12391901
L2C-total_hit : 6361232
L2C-total_miss : 6030669
L2C-load_access : 424219
L2C-load_hit : 173157
L2C-load_miss : 251062
L2C-rfo_access : 5049896
L2C-rfo_hit : 6490
L2C-rfo_miss : 5043406
L2C-prefetch_access : 1759880
L2C-prefetch_hit : 1023849
L2C-prefetch_miss : 736031
L2C-writeback_access : 5157906
L2C-writeback_hit : 5157736
L2C-writeback_miss : 170
L2C-prefetch_requested : 2063293
L2C-prefetch_issued : 2063258
L2C-prefetch_useful : 63489
L2C-prefetch_useless : 669350
L2C-Avg_miss_latency : 474.467
L2C-Morteza_fill_l2_prefetches : 301677

LLC TOTAL     ACCESS:   11938557  HIT:    7210535  MISS:    4728022
LLC LOAD      ACCESS:     251035  HIT:     183959  MISS:      67076
LLC RFO       ACCESS:    5043406  HIT:     627353  MISS:    4416053
LLC PREFETCH  ACCESS:    1510171  HIT:    1265278  MISS:     244893
LLC WRITEBACK ACCESS:    5133945  HIT:    5133945  MISS:          0
LLC PREFETCH  REQUESTED:          0  ISSUED:          0  USEFUL:      20952  USELESS:     223655
LLC AVERAGE MISS LATENCY: 574.056 cycles
LLC

SHEET
LLC-total_access : 11938557
LLC-total_hit : 7210535
LLC-total_miss : 4728022
LLC-load_access : 251035
LLC-load_hit : 183959
LLC-load_miss : 67076
LLC-rfo_access : 5043406
LLC-rfo_hit : 627353
LLC-rfo_miss : 4416053
LLC-prefetch_access : 1510171
LLC-prefetch_hit : 1265278
LLC-prefetch_miss : 244893
LLC-writeback_access : 5133945
LLC-writeback_hit : 5133945
LLC-writeback_miss : 0
LLC-prefetch_requested : 0
LLC-prefetch_issued : 0
LLC-prefetch_useful : 20952
LLC-prefetch_useless : 223655
LLC-Avg_miss_latency : 574.056
LLC-Morteza_fill_l2_prefetches : 767413

Major fault: 0 Minor fault: 2817



Printing Logs
statHeadFound: 514796
statHeadMissing: 2075725
statStreamBufferHit: 7375243
statPrefetchEntryFound: 2422631
statCompactorMatch: 9002074
statStreamTrackerLookup: 9965764
statRecord: 963690
statGetPointer: 2590521
statEnqueuePrefetch: 7494866
statPrefetchQueueIsFull: 666
StreamBufferHitRate: 0.740058
Regions' size: 1453
next_region_correct: 560916
next_region_wrong: 401303
next_region_correct_prediction: 0.58294
statStreamBufferLookups: 717535008
statL1iLookups: 59958928
statCompactorLookups: 358767504
morteza: start

SHEET
mana_table_access_counter : 3386969
hobp_table_access_counter : 16640108
sab_access_counter : 9797874
srq_access_counter : 9332863

morteza: end
CPU 0 L1D next line prefetcher final stats

DRAM Statistics
 CHANNEL 0
 RQ ROW_BUFFER_HIT:    1431623  ROW_BUFFER_MISS:    3296359
 DBUS_CONGESTED:    8208696
 WQ ROW_BUFFER_HIT:    1192496  ROW_BUFFER_MISS:    3252598  FULL:          0

 AVG_CONGESTED_CYCLE: 6

CPU 0 Branch Prediction Accuracy: 99.665% MPKI: 0.78342 Average ROB Occupancy at Mispredict: 100.255

Branch types
NOT_BRANCH: 38305862 76.6117%
BRANCH_DIRECT_JUMP: 384282 0.768564%
BRANCH_INDIRECT: 71949 0.143898%
BRANCH_CONDITIONAL: 9879826 19.7597%
BRANCH_DIRECT_CALL: 650586 1.30117%
BRANCH_INDIRECT_CALL: 28456 0.056912%
BRANCH_RETURN: 679046 1.35809%
BRANCH_OTHER: 0 0%

