Initialize SIGNATURE TABLE
ST_SET: 1
ST_WAY: 256
ST_TAG_BIT: 16
ST_TAG_MASK: ffff

Initialize PATTERN TABLE
PT_SET: 512
PT_WAY: 4
SIG_DELTA_BIT: 7
C_SIG_BIT: 4
C_DELTA_BIT: 4

Initialize PREFETCH FILTER
FILTER_SET: 1024
MANA initialize 
tds: 2 tdm: 2
size MANA SINGLE: 15.5 KB
size MANA NULTIPLE: 0 KB
size HOBPT: 0.703125 KB
size SRQ: 0.14502 KB
size SABs: 0.290039 KB
size prefetch queue: 0.453125 KB
total: 17.0913 KB

*** ChampSim Multicore Out-of-Order Simulator ***

Warmup Instructions: 50000000
Simulation Instructions: 50000000
Number of CPUs: 1
LLC sets: 2048
LLC ways: 16
Off-chip DRAM Size: 4096 MB Channels: 1 Width: 64-bit Data Rate: 3200 MT/s

CPU 0 runs /home/mbaradaran/ChampSim/dpc3_traces/spec_perlbench_001.champsimtrace.xz
CPU 0 L1D next line prefetcher
Heartbeat CPU 0 instructions: 10000000 cycles: 3275994 heartbeat IPC: 3.05251 cumulative IPC: 3.05251 (Simulation time: 0 hr 1 min 12 sec) 
Heartbeat CPU 0 instructions: 20000000 cycles: 6540766 heartbeat IPC: 3.063 cumulative IPC: 3.05775 (Simulation time: 0 hr 2 min 24 sec) 
Heartbeat CPU 0 instructions: 30000002 cycles: 9857652 heartbeat IPC: 3.01488 cumulative IPC: 3.04332 (Simulation time: 0 hr 3 min 35 sec) 
Heartbeat CPU 0 instructions: 40000002 cycles: 13113257 heartbeat IPC: 3.07163 cumulative IPC: 3.05035 (Simulation time: 0 hr 4 min 40 sec) 
Heartbeat CPU 0 instructions: 50000001 cycles: 16387154 heartbeat IPC: 3.05446 cumulative IPC: 3.05117 (Simulation time: 0 hr 5 min 44 sec) 

Warmup complete CPU 0 instructions: 50000001 cycles: 16387154 (Simulation time: 0 hr 5 min 44 sec) 

Heartbeat CPU 0 instructions: 60000001 cycles: 24715101 heartbeat IPC: 1.20078 cumulative IPC: 1.20078 (Simulation time: 0 hr 6 min 44 sec) 
Heartbeat CPU 0 instructions: 70000000 cycles: 32952508 heartbeat IPC: 1.21397 cumulative IPC: 1.20734 (Simulation time: 0 hr 7 min 46 sec) 
Heartbeat CPU 0 instructions: 80000000 cycles: 41395874 heartbeat IPC: 1.18436 cumulative IPC: 1.19958 (Simulation time: 0 hr 8 min 46 sec) 
Heartbeat CPU 0 instructions: 90000000 cycles: 47122013 heartbeat IPC: 1.74638 cumulative IPC: 1.30145 (Simulation time: 0 hr 9 min 33 sec) 
Heartbeat CPU 0 instructions: 100000002 cycles: 52996522 heartbeat IPC: 1.70227 cumulative IPC: 1.36577 (Simulation time: 0 hr 10 min 20 sec) 
Finished CPU 0 instructions: 50000001 cycles: 36609368 cumulative IPC: 1.36577 (Simulation time: 0 hr 10 min 20 sec) 

ChampSim completed all CPUs

Region of Interest Statistics

CPU 0 cumulative IPC: 1.36577 instructions: 50000001 cycles: 36609368

SHEET
IPC : 1.36577

L1D TOTAL     ACCESS:   20744874  HIT:   20329738  MISS:     415136
L1D LOAD      ACCESS:    7200933  HIT:    6987291  MISS:     213642
L1D RFO       ACCESS:    6543285  HIT:    6524788  MISS:      18497
L1D PREFETCH  ACCESS:    7000656  HIT:    6817659  MISS:     182997
L1D WRITEBACK ACCESS:          0  HIT:          0  MISS:          0
L1D PREFETCH  REQUESTED:    7216987  ISSUED:    7101682  USEFUL:      55301  USELESS:     127691
L1D AVERAGE MISS LATENCY: 58.0251 cycles
L1D

SHEET
L1D-total_access : 20744874
L1D-total_hit : 20329738
L1D-total_miss : 415136
L1D-load_access : 7200933
L1D-load_hit : 6987291
L1D-load_miss : 213642
L1D-rfo_access : 6543285
L1D-rfo_hit : 6524788
L1D-rfo_miss : 18497
L1D-prefetch_access : 7000656
L1D-prefetch_hit : 6817659
L1D-prefetch_miss : 182997
L1D-writeback_access : 0
L1D-writeback_hit : 0
L1D-writeback_miss : 0
L1D-prefetch_requested : 7216987
L1D-prefetch_issued : 7101682
L1D-prefetch_useful : 55301
L1D-prefetch_useless : 127691
L1D-Avg_miss_latency : 58.0251
L1D-Morteza_fill_l2_prefetches : 0

L1I TOTAL     ACCESS:   15379404  HIT:   14692965  MISS:     686439
L1I LOAD      ACCESS:    9141658  HIT:    8979968  MISS:     161690
L1I RFO       ACCESS:          0  HIT:          0  MISS:          0
L1I PREFETCH  ACCESS:    6237746  HIT:    5712997  MISS:     524749
L1I WRITEBACK ACCESS:          0  HIT:          0  MISS:          0
L1I PREFETCH  REQUESTED:    6485745  ISSUED:    6476661  USEFUL:     358962  USELESS:     165785
L1I AVERAGE MISS LATENCY: 16.1455 cycles
L1I

SHEET
L1I-total_access : 15379404
L1I-total_hit : 14692965
L1I-total_miss : 686439
L1I-load_access : 9141658
L1I-load_hit : 8979968
L1I-load_miss : 161690
L1I-rfo_access : 0
L1I-rfo_hit : 0
L1I-rfo_miss : 0
L1I-prefetch_access : 6237746
L1I-prefetch_hit : 5712997
L1I-prefetch_miss : 524749
L1I-writeback_access : 0
L1I-writeback_hit : 0
L1I-writeback_miss : 0
L1I-prefetch_requested : 6485745
L1I-prefetch_issued : 6476661
L1I-prefetch_useful : 358962
L1I-prefetch_useless : 165785
L1I-Avg_miss_latency : 16.1455
L1I-Morteza_fill_l2_prefetches : 0

L2C TOTAL     ACCESS:    1569435  HIT:    1403629  MISS:     165806
L2C LOAD      ACCESS:     322360  HIT:     241584  MISS:      80776
L2C RFO       ACCESS:      18268  HIT:      12919  MISS:       5349
L2C PREFETCH  ACCESS:    1149845  HIT:    1070504  MISS:      79341
L2C WRITEBACK ACCESS:      78962  HIT:      78622  MISS:        340
L2C PREFETCH  REQUESTED:    1033032  ISSUED:    1033005  USEFUL:       6458  USELESS:      72870
L2C AVERAGE MISS LATENCY: 120.641 cycles
L2C

SHEET
L2C-total_access : 1569435
L2C-total_hit : 1403629
L2C-total_miss : 165806
L2C-load_access : 322360
L2C-load_hit : 241584
L2C-load_miss : 80776
L2C-rfo_access : 18268
L2C-rfo_hit : 12919
L2C-rfo_miss : 5349
L2C-prefetch_access : 1149845
L2C-prefetch_hit : 1070504
L2C-prefetch_miss : 79341
L2C-writeback_access : 78962
L2C-writeback_hit : 78622
L2C-writeback_miss : 340
L2C-prefetch_requested : 1033032
L2C-prefetch_issued : 1033005
L2C-prefetch_useful : 6458
L2C-prefetch_useless : 72870
L2C-Avg_miss_latency : 120.641
L2C-Morteza_fill_l2_prefetches : 391248

LLC TOTAL     ACCESS:     408634  HIT:     265444  MISS:     143190
LLC LOAD      ACCESS:      80775  HIT:      32114  MISS:      48661
LLC RFO       ACCESS:       5349  HIT:       2285  MISS:       3064
LLC PREFETCH  ACCESS:     297380  HIT:     206431  MISS:      90949
LLC WRITEBACK ACCESS:      25130  HIT:      24614  MISS:        516
LLC PREFETCH  REQUESTED:          0  ISSUED:          0  USEFUL:      14785  USELESS:      76344
LLC AVERAGE MISS LATENCY: 160.073 cycles
LLC

SHEET
LLC-total_access : 408634
LLC-total_hit : 265444
LLC-total_miss : 143190
LLC-load_access : 80775
LLC-load_hit : 32114
LLC-load_miss : 48661
LLC-rfo_access : 5349
LLC-rfo_hit : 2285
LLC-rfo_miss : 3064
LLC-prefetch_access : 297380
LLC-prefetch_hit : 206431
LLC-prefetch_miss : 90949
LLC-writeback_access : 25130
LLC-writeback_hit : 24614
LLC-writeback_miss : 516
LLC-prefetch_requested : 0
LLC-prefetch_issued : 0
LLC-prefetch_useful : 14785
LLC-prefetch_useless : 76344
LLC-Avg_miss_latency : 160.073
LLC-Morteza_fill_l2_prefetches : 170336

Major fault: 0 Minor fault: 6364



Printing Logs
statHeadFound: 675225
statHeadMissing: 254469
statStreamBufferHit: 13349704
statPrefetchEntryFound: 4261318
statCompactorMatch: 12971209
statStreamTrackerLookup: 14279398
statRecord: 1308189
statGetPointer: 929694
statEnqueuePrefetch: 13073390
statPrefetchQueueIsFull: 438
StreamBufferHitRate: 0.934893
Regions' size: 2410
next_region_correct: 912427
next_region_wrong: 393334
next_region_correct_prediction: 0.69877
statStreamBufferLookups: 1028116656
statL1iLookups: 104587120
statCompactorLookups: 514058328
morteza: start

SHEET
mana_table_access_counter : 5569927
hobp_table_access_counter : 13213234
sab_access_counter : 17611022
srq_access_counter : 12602939

morteza: end
CPU 0 L1D next line prefetcher final stats

DRAM Statistics
 CHANNEL 0
 RQ ROW_BUFFER_HIT:      32759  ROW_BUFFER_MISS:     109914
 DBUS_CONGESTED:      58548
 WQ ROW_BUFFER_HIT:       4138  ROW_BUFFER_MISS:      13254  FULL:          0

 AVG_CONGESTED_CYCLE: 4

CPU 0 Branch Prediction Accuracy: 98.7418% MPKI: 2.47758 Average ROB Occupancy at Mispredict: 75.9731

Branch types
NOT_BRANCH: 40154100 80.3082%
BRANCH_DIRECT_JUMP: 817094 1.63419%
BRANCH_INDIRECT: 303787 0.607574%
BRANCH_CONDITIONAL: 7492103 14.9842%
BRANCH_DIRECT_CALL: 471777 0.943554%
BRANCH_INDIRECT_CALL: 144546 0.289092%
BRANCH_RETURN: 616324 1.23265%
BRANCH_OTHER: 0 0%

