Initialize SIGNATURE TABLE
ST_SET: 1
ST_WAY: 256
ST_TAG_BIT: 16
ST_TAG_MASK: ffff

Initialize PATTERN TABLE
PT_SET: 512
PT_WAY: 4
SIG_DELTA_BIT: 7
C_SIG_BIT: 4
C_DELTA_BIT: 4

Initialize PREFETCH FILTER
FILTER_SET: 1024
MANA initialize 
tds: 2 tdm: 2
size MANA SINGLE: 15.5 KB
size MANA NULTIPLE: 0 KB
size HOBPT: 0.703125 KB
size SRQ: 0.14502 KB
size SABs: 0.290039 KB
size prefetch queue: 0.453125 KB
total: 17.0913 KB

*** ChampSim Multicore Out-of-Order Simulator ***

Warmup Instructions: 50000000
Simulation Instructions: 50000000
Number of CPUs: 1
LLC sets: 2048
LLC ways: 16
Off-chip DRAM Size: 4096 MB Channels: 1 Width: 64-bit Data Rate: 3200 MT/s

CPU 0 runs /home/mbaradaran/ChampSim/dpc3_traces/client_007.champsimtrace.xz
CPU 0 L1D next line prefetcher
Heartbeat CPU 0 instructions: 10000001 cycles: 3642772 heartbeat IPC: 2.74516 cumulative IPC: 2.74516 (Simulation time: 0 hr 1 min 32 sec) 
Heartbeat CPU 0 instructions: 20000003 cycles: 7035753 heartbeat IPC: 2.94726 cumulative IPC: 2.84262 (Simulation time: 0 hr 3 min 14 sec) 
Heartbeat CPU 0 instructions: 30000000 cycles: 10908886 heartbeat IPC: 2.58189 cumulative IPC: 2.75005 (Simulation time: 0 hr 5 min 11 sec) 
Heartbeat CPU 0 instructions: 40000003 cycles: 15068864 heartbeat IPC: 2.40386 cumulative IPC: 2.65448 (Simulation time: 0 hr 7 min 6 sec) 
Heartbeat CPU 0 instructions: 50000002 cycles: 18474362 heartbeat IPC: 2.93643 cumulative IPC: 2.70645 (Simulation time: 0 hr 8 min 50 sec) 

Warmup complete CPU 0 instructions: 50000002 cycles: 18474362 (Simulation time: 0 hr 8 min 50 sec) 

Heartbeat CPU 0 instructions: 60000003 cycles: 25482975 heartbeat IPC: 1.42682 cumulative IPC: 1.42682 (Simulation time: 0 hr 10 min 40 sec) 
Heartbeat CPU 0 instructions: 70000003 cycles: 34349124 heartbeat IPC: 1.12789 cumulative IPC: 1.25986 (Simulation time: 0 hr 12 min 37 sec) 
Heartbeat CPU 0 instructions: 80000002 cycles: 39717057 heartbeat IPC: 1.86291 cumulative IPC: 1.41225 (Simulation time: 0 hr 14 min 2 sec) 
Heartbeat CPU 0 instructions: 90000002 cycles: 47479276 heartbeat IPC: 1.28829 cumulative IPC: 1.37908 (Simulation time: 0 hr 15 min 47 sec) 
Heartbeat CPU 0 instructions: 100000002 cycles: 56426447 heartbeat IPC: 1.11767 cumulative IPC: 1.31745 (Simulation time: 0 hr 17 min 26 sec) 
Finished CPU 0 instructions: 50000000 cycles: 37952085 cumulative IPC: 1.31745 (Simulation time: 0 hr 17 min 26 sec) 

ChampSim completed all CPUs

Region of Interest Statistics

CPU 0 cumulative IPC: 1.31745 instructions: 50000000 cycles: 37952085

SHEET
IPC : 1.31745

L1D TOTAL     ACCESS:   21277314  HIT:   20107981  MISS:    1169333
L1D LOAD      ACCESS:    8408061  HIT:    7869815  MISS:     538246
L1D RFO       ACCESS:    4870299  HIT:    4779089  MISS:      91210
L1D PREFETCH  ACCESS:    7998954  HIT:    7459077  MISS:     539877
L1D WRITEBACK ACCESS:          0  HIT:          0  MISS:          0
L1D PREFETCH  REQUESTED:    8460398  ISSUED:    8217403  USEFUL:     159201  USELESS:     380691
L1D AVERAGE MISS LATENCY: 34.4603 cycles
L1D

SHEET
L1D-total_access : 21277314
L1D-total_hit : 20107981
L1D-total_miss : 1169333
L1D-load_access : 8408061
L1D-load_hit : 7869815
L1D-load_miss : 538246
L1D-rfo_access : 4870299
L1D-rfo_hit : 4779089
L1D-rfo_miss : 91210
L1D-prefetch_access : 7998954
L1D-prefetch_hit : 7459077
L1D-prefetch_miss : 539877
L1D-writeback_access : 0
L1D-writeback_hit : 0
L1D-writeback_miss : 0
L1D-prefetch_requested : 8460398
L1D-prefetch_issued : 8217403
L1D-prefetch_useful : 159201
L1D-prefetch_useless : 380691
L1D-Avg_miss_latency : 34.4603

L1I TOTAL     ACCESS:   15085902  HIT:   14021688  MISS:    1064214
L1I LOAD      ACCESS:    9077488  HIT:    8943741  MISS:     133747
L1I RFO       ACCESS:          0  HIT:          0  MISS:          0
L1I PREFETCH  ACCESS:    6008414  HIT:    5077947  MISS:     930467
L1I WRITEBACK ACCESS:          0  HIT:          0  MISS:          0
L1I PREFETCH  REQUESTED:    6494732  ISSUED:    6360245  USEFUL:     710695  USELESS:     219831
L1I AVERAGE MISS LATENCY: 16.4419 cycles
L1I

SHEET
L1I-total_access : 15085902
L1I-total_hit : 14021688
L1I-total_miss : 1064214
L1I-load_access : 9077488
L1I-load_hit : 8943741
L1I-load_miss : 133747
L1I-rfo_access : 0
L1I-rfo_hit : 0
L1I-rfo_miss : 0
L1I-prefetch_access : 6008414
L1I-prefetch_hit : 5077947
L1I-prefetch_miss : 930467
L1I-writeback_access : 0
L1I-writeback_hit : 0
L1I-writeback_miss : 0
L1I-prefetch_requested : 6494732
L1I-prefetch_issued : 6360245
L1I-prefetch_useful : 710695
L1I-prefetch_useless : 219831
L1I-Avg_miss_latency : 16.4419

L2C TOTAL     ACCESS:    3208110  HIT:    3001287  MISS:     206823
L2C LOAD      ACCESS:     621417  HIT:     551238  MISS:      70179
L2C RFO       ACCESS:      89542  HIT:      47990  MISS:      41552
L2C PREFETCH  ACCESS:    2169421  HIT:    2074452  MISS:      94969
L2C WRITEBACK ACCESS:     327730  HIT:     327607  MISS:        123
L2C PREFETCH  REQUESTED:    2596228  ISSUED:    2586066  USEFUL:       9376  USELESS:      84772
L2C AVERAGE MISS LATENCY: 125.241 cycles
L2C

SHEET
L2C-total_access : 3208110
L2C-total_hit : 3001287
L2C-total_miss : 206823
L2C-load_access : 621417
L2C-load_hit : 551238
L2C-load_miss : 70179
L2C-rfo_access : 89542
L2C-rfo_hit : 47990
L2C-rfo_miss : 41552
L2C-prefetch_access : 2169421
L2C-prefetch_hit : 2074452
L2C-prefetch_miss : 94969
L2C-writeback_access : 327730
L2C-writeback_hit : 327607
L2C-writeback_miss : 123
L2C-prefetch_requested : 2596228
L2C-prefetch_issued : 2586066
L2C-prefetch_useful : 9376
L2C-prefetch_useless : 84772
L2C-Avg_miss_latency : 125.241

LLC TOTAL     ACCESS:     992118  HIT:     823483  MISS:     168635
LLC LOAD      ACCESS:      70083  HIT:      34763  MISS:      35320
LLC RFO       ACCESS:      41552  HIT:       7143  MISS:      34409
LLC PREFETCH  ACCESS:     806006  HIT:     707408  MISS:      98598
LLC WRITEBACK ACCESS:      74477  HIT:      74169  MISS:        308
LLC PREFETCH  REQUESTED:          0  ISSUED:          0  USEFUL:      18995  USELESS:      79448
LLC AVERAGE MISS LATENCY: 182.059 cycles
LLC

SHEET
LLC-total_access : 992118
LLC-total_hit : 823483
LLC-total_miss : 168635
LLC-load_access : 70083
LLC-load_hit : 34763
LLC-load_miss : 35320
LLC-rfo_access : 41552
LLC-rfo_hit : 7143
LLC-rfo_miss : 34409
LLC-prefetch_access : 806006
LLC-prefetch_hit : 707408
LLC-prefetch_miss : 98598
LLC-writeback_access : 74477
LLC-writeback_hit : 74169
LLC-writeback_miss : 308
LLC-prefetch_requested : 0
LLC-prefetch_issued : 0
LLC-prefetch_useful : 18995
LLC-prefetch_useless : 79448
LLC-Avg_miss_latency : 182.059

Major fault: 0 Minor fault: 4405



Printing Logs
statHeadFound: 591989
statHeadMissing: 1418828
statStreamBufferHit: 11662532
statPrefetchEntryFound: 4371232
statCompactorMatch: 12599523
statStreamTrackerLookup: 13673349
statRecord: 1073826
statGetPointer: 2010817
statEnqueuePrefetch: 12849961
statPrefetchQueueIsFull: 24400
StreamBufferHitRate: 0.852939
Regions' size: 4958
next_region_correct: 674478
next_region_wrong: 394372
next_region_correct_prediction: 0.631031
statStreamBufferLookups: 984481128
statL1iLookups: 102799688
statCompactorLookups: 492240564
morteza: start

SHEET
mana_table_access_counter : 5469440
hobp_table_access_counter : 16734196
sab_access_counter : 16033764
srq_access_counter : 12357731

morteza: end
CPU 0 L1D next line prefetcher final stats

DRAM Statistics
 CHANNEL 0
 RQ ROW_BUFFER_HIT:      35700  ROW_BUFFER_MISS:     132620
 DBUS_CONGESTED:      94781
 WQ ROW_BUFFER_HIT:      13083  ROW_BUFFER_MISS:      45601  FULL:          0

 AVG_CONGESTED_CYCLE: 5

CPU 0 Branch Prediction Accuracy: 98.8607% MPKI: 1.8623 Average ROB Occupancy at Mispredict: 112.416

Branch types
NOT_BRANCH: 41826773 83.6535%
BRANCH_DIRECT_JUMP: 735330 1.47066%
BRANCH_INDIRECT: 269194 0.538388%
BRANCH_CONDITIONAL: 5957947 11.9159%
BRANCH_DIRECT_CALL: 368758 0.737516%
BRANCH_INDIRECT_CALL: 226975 0.45395%
BRANCH_RETURN: 614696 1.22939%
BRANCH_OTHER: 0 0%

