Initialize SIGNATURE TABLE
ST_SET: 1
ST_WAY: 256
ST_TAG_BIT: 16
ST_TAG_MASK: ffff

Initialize PATTERN TABLE
PT_SET: 512
PT_WAY: 4
SIG_DELTA_BIT: 7
C_SIG_BIT: 4
C_DELTA_BIT: 4

Initialize PREFETCH FILTER
FILTER_SET: 1024
MANA initialize 
tds: 2 tdm: 2
size MANA SINGLE: 15.5 KB
size MANA NULTIPLE: 0 KB
size HOBPT: 0.703125 KB
size SRQ: 0.14502 KB
size SABs: 0.290039 KB
size prefetch queue: 0.453125 KB
total: 17.0913 KB

*** ChampSim Multicore Out-of-Order Simulator ***

Warmup Instructions: 50000000
Simulation Instructions: 50000000
Number of CPUs: 1
LLC sets: 2048
LLC ways: 16
Off-chip DRAM Size: 4096 MB Channels: 1 Width: 64-bit Data Rate: 3200 MT/s

CPU 0 runs /home/mbaradaran/ChampSim/dpc3_traces/server_009.champsimtrace.xz
CPU 0 L1D next line prefetcher
Heartbeat CPU 0 instructions: 10000003 cycles: 3202791 heartbeat IPC: 3.12228 cumulative IPC: 3.12228 (Simulation time: 0 hr 1 min 43 sec) 
Heartbeat CPU 0 instructions: 20000001 cycles: 6399866 heartbeat IPC: 3.12786 cumulative IPC: 3.12507 (Simulation time: 0 hr 3 min 30 sec) 
Heartbeat CPU 0 instructions: 30000002 cycles: 9611756 heartbeat IPC: 3.11343 cumulative IPC: 3.12118 (Simulation time: 0 hr 5 min 19 sec) 
Heartbeat CPU 0 instructions: 40000003 cycles: 12820570 heartbeat IPC: 3.11642 cumulative IPC: 3.11999 (Simulation time: 0 hr 7 min 4 sec) 
Heartbeat CPU 0 instructions: 50000000 cycles: 16085072 heartbeat IPC: 3.06325 cumulative IPC: 3.10847 (Simulation time: 0 hr 8 min 51 sec) 

Warmup complete CPU 0 instructions: 50000004 cycles: 16085073 (Simulation time: 0 hr 8 min 51 sec) 

Heartbeat CPU 0 instructions: 60000002 cycles: 32073115 heartbeat IPC: 0.625468 cumulative IPC: 0.625467 (Simulation time: 0 hr 11 min 10 sec) 
Heartbeat CPU 0 instructions: 70000003 cycles: 53292353 heartbeat IPC: 0.471271 cumulative IPC: 0.537529 (Simulation time: 0 hr 13 min 57 sec) 
Heartbeat CPU 0 instructions: 80000000 cycles: 60890752 heartbeat IPC: 1.31607 cumulative IPC: 0.669558 (Simulation time: 0 hr 15 min 31 sec) 
Heartbeat CPU 0 instructions: 90000001 cycles: 68627125 heartbeat IPC: 1.2926 cumulative IPC: 0.761295 (Simulation time: 0 hr 17 min 9 sec) 
Heartbeat CPU 0 instructions: 100000003 cycles: 76267119 heartbeat IPC: 1.3089 cumulative IPC: 0.830813 (Simulation time: 0 hr 18 min 50 sec) 
Finished CPU 0 instructions: 50000003 cycles: 60182047 cumulative IPC: 0.830813 (Simulation time: 0 hr 18 min 50 sec) 

ChampSim completed all CPUs

Region of Interest Statistics

CPU 0 cumulative IPC: 0.830813 instructions: 50000003 cycles: 60182047

SHEET
IPC : 0.830813

L1D TOTAL     ACCESS:   21789981  HIT:   17210220  MISS:    4579761
L1D LOAD      ACCESS:    8706719  HIT:    6428205  MISS:    2278514
L1D RFO       ACCESS:    4587086  HIT:    4482500  MISS:     104586
L1D PREFETCH  ACCESS:    8496176  HIT:    6299515  MISS:    2196661
L1D WRITEBACK ACCESS:          0  HIT:          0  MISS:          0
L1D PREFETCH  REQUESTED:    8740271  ISSUED:    8641924  USEFUL:     107981  USELESS:    2088679
L1D AVERAGE MISS LATENCY: 20.2762 cycles
L1D

SHEET
L1D-total_access : 21789981
L1D-total_hit : 17210220
L1D-total_miss : 4579761
L1D-load_access : 8706719
L1D-load_hit : 6428205
L1D-load_miss : 2278514
L1D-rfo_access : 4587086
L1D-rfo_hit : 4482500
L1D-rfo_miss : 104586
L1D-prefetch_access : 8496176
L1D-prefetch_hit : 6299515
L1D-prefetch_miss : 2196661
L1D-writeback_access : 0
L1D-writeback_hit : 0
L1D-writeback_miss : 0
L1D-prefetch_requested : 8740271
L1D-prefetch_issued : 8641924
L1D-prefetch_useful : 107981
L1D-prefetch_useless : 2088679
L1D-Avg_miss_latency : 20.2762

L1I TOTAL     ACCESS:   17466328  HIT:   15705429  MISS:    1760899
L1I LOAD      ACCESS:   10712729  HIT:   10420166  MISS:     292563
L1I RFO       ACCESS:          0  HIT:          0  MISS:          0
L1I PREFETCH  ACCESS:    6753599  HIT:    5285263  MISS:    1468336
L1I WRITEBACK ACCESS:          0  HIT:          0  MISS:          0
L1I PREFETCH  REQUESTED:    7424518  ISSUED:    7022741  USEFUL:     802117  USELESS:     666202
L1I AVERAGE MISS LATENCY: 28.1741 cycles
L1I

SHEET
L1I-total_access : 17466328
L1I-total_hit : 15705429
L1I-total_miss : 1760899
L1I-load_access : 10712729
L1I-load_hit : 10420166
L1I-load_miss : 292563
L1I-rfo_access : 0
L1I-rfo_hit : 0
L1I-rfo_miss : 0
L1I-prefetch_access : 6753599
L1I-prefetch_hit : 5285263
L1I-prefetch_miss : 1468336
L1I-writeback_access : 0
L1I-writeback_hit : 0
L1I-writeback_miss : 0
L1I-prefetch_requested : 7424518
L1I-prefetch_issued : 7022741
L1I-prefetch_useful : 802117
L1I-prefetch_useless : 666202
L1I-Avg_miss_latency : 28.1741

L2C TOTAL     ACCESS:    8006567  HIT:    6951417  MISS:    1055150
L2C LOAD      ACCESS:    2485526  HIT:    2168253  MISS:     317273
L2C RFO       ACCESS:     103617  HIT:      63269  MISS:      40348
L2C PREFETCH  ACCESS:    5160562  HIT:    4464568  MISS:     695994
L2C WRITEBACK ACCESS:     256862  HIT:     255327  MISS:       1535
L2C PREFETCH  REQUESTED:    7327687  ISSUED:    7322394  USEFUL:      44795  USELESS:     649683
L2C AVERAGE MISS LATENCY: 45.7207 cycles
L2C

SHEET
L2C-total_access : 8006567
L2C-total_hit : 6951417
L2C-total_miss : 1055150
L2C-load_access : 2485526
L2C-load_hit : 2168253
L2C-load_miss : 317273
L2C-rfo_access : 103617
L2C-rfo_hit : 63269
L2C-rfo_miss : 40348
L2C-prefetch_access : 5160562
L2C-prefetch_hit : 4464568
L2C-prefetch_miss : 695994
L2C-writeback_access : 256862
L2C-writeback_hit : 255327
L2C-writeback_miss : 1535
L2C-prefetch_requested : 7327687
L2C-prefetch_issued : 7322394
L2C-prefetch_useful : 44795
L2C-prefetch_useless : 649683
L2C-Avg_miss_latency : 45.7207

LLC TOTAL     ACCESS:    2519043  HIT:    2390343  MISS:     128700
LLC LOAD      ACCESS:     316216  HIT:     293538  MISS:      22678
LLC RFO       ACCESS:      40346  HIT:      31677  MISS:       8669
LLC PREFETCH  ACCESS:    2023179  HIT:    1925982  MISS:      97197
LLC WRITEBACK ACCESS:     139302  HIT:     139146  MISS:        156
LLC PREFETCH  REQUESTED:          0  ISSUED:          0  USEFUL:      12964  USELESS:      81915
LLC AVERAGE MISS LATENCY: 169.646 cycles
LLC

SHEET
LLC-total_access : 2519043
LLC-total_hit : 2390343
LLC-total_miss : 128700
LLC-load_access : 316216
LLC-load_hit : 293538
LLC-load_miss : 22678
LLC-rfo_access : 40346
LLC-rfo_hit : 31677
LLC-rfo_miss : 8669
LLC-prefetch_access : 2023179
LLC-prefetch_hit : 1925982
LLC-prefetch_miss : 97197
LLC-writeback_access : 139302
LLC-writeback_hit : 139146
LLC-writeback_miss : 156
LLC-prefetch_requested : 0
LLC-prefetch_issued : 0
LLC-prefetch_useful : 12964
LLC-prefetch_useless : 81915
LLC-Avg_miss_latency : 169.646

Major fault: 0 Minor fault: 6351



Printing Logs
statHeadFound: 480583
statHeadMissing: 951755
statStreamBufferHit: 12162076
statPrefetchEntryFound: 4273018
statCompactorMatch: 11666342
statStreamTrackerLookup: 13594414
statRecord: 1928072
statGetPointer: 1432338
statEnqueuePrefetch: 14474831
statPrefetchQueueIsFull: 63171
StreamBufferHitRate: 0.894638
Regions' size: 4276
next_region_correct: 1610633
next_region_wrong: 313145
next_region_correct_prediction: 0.837224
statStreamBufferLookups: 978797808
statL1iLookups: 115798648
statCompactorLookups: 489398904
morteza: start

SHEET
mana_table_access_counter : 6264243
hobp_table_access_counter : 17777843
sab_access_counter : 16435094
srq_access_counter : 13201994

morteza: end
CPU 0 L1D next line prefetcher final stats

DRAM Statistics
 CHANNEL 0
 RQ ROW_BUFFER_HIT:      25286  ROW_BUFFER_MISS:     103248
 DBUS_CONGESTED:      58036
 WQ ROW_BUFFER_HIT:       8819  ROW_BUFFER_MISS:      38103  FULL:          0

 AVG_CONGESTED_CYCLE: 5

CPU 0 Branch Prediction Accuracy: 99.4713% MPKI: 1.11484 Average ROB Occupancy at Mispredict: 105.41

Branch types
NOT_BRANCH: 39456615 78.9132%
BRANCH_DIRECT_JUMP: 445350 0.8907%
BRANCH_INDIRECT: 131149 0.262298%
BRANCH_CONDITIONAL: 8130196 16.2604%
BRANCH_DIRECT_CALL: 732485 1.46497%
BRANCH_INDIRECT_CALL: 172369 0.344738%
BRANCH_RETURN: 931558 1.86312%
BRANCH_OTHER: 0 0%

