Initialize SIGNATURE TABLE
ST_SET: 1
ST_WAY: 256
ST_TAG_BIT: 16
ST_TAG_MASK: ffff

Initialize PATTERN TABLE
PT_SET: 512
PT_WAY: 4
SIG_DELTA_BIT: 7
C_SIG_BIT: 4
C_DELTA_BIT: 4

Initialize PREFETCH FILTER
FILTER_SET: 1024
MANA initialize 
tds: 2 tdm: 2
size MANA SINGLE: 15.5 KB
size MANA NULTIPLE: 0 KB
size HOBPT: 0.703125 KB
size SRQ: 0.14502 KB
size SABs: 0.290039 KB
size prefetch queue: 0.453125 KB
total: 17.0913 KB

*** ChampSim Multicore Out-of-Order Simulator ***

Warmup Instructions: 50000000
Simulation Instructions: 50000000
Number of CPUs: 1
LLC sets: 2048
LLC ways: 16
Off-chip DRAM Size: 4096 MB Channels: 1 Width: 64-bit Data Rate: 3200 MT/s

CPU 0 runs /home/mbaradaran/ChampSim/dpc3_traces/server_018.champsimtrace.xz
CPU 0 L1D next line prefetcher
Heartbeat CPU 0 instructions: 10000003 cycles: 3617717 heartbeat IPC: 2.76417 cumulative IPC: 2.76417 (Simulation time: 0 hr 1 min 59 sec) 
Heartbeat CPU 0 instructions: 20000001 cycles: 7240428 heartbeat IPC: 2.76036 cumulative IPC: 2.76227 (Simulation time: 0 hr 3 min 49 sec) 
Heartbeat CPU 0 instructions: 30000003 cycles: 10716555 heartbeat IPC: 2.87677 cumulative IPC: 2.79941 (Simulation time: 0 hr 5 min 42 sec) 
Heartbeat CPU 0 instructions: 40000000 cycles: 14229357 heartbeat IPC: 2.84673 cumulative IPC: 2.81109 (Simulation time: 0 hr 7 min 39 sec) 
Heartbeat CPU 0 instructions: 50000003 cycles: 17847868 heartbeat IPC: 2.76357 cumulative IPC: 2.80146 (Simulation time: 0 hr 9 min 46 sec) 

Warmup complete CPU 0 instructions: 50000003 cycles: 17847868 (Simulation time: 0 hr 9 min 46 sec) 

Heartbeat CPU 0 instructions: 60000000 cycles: 35447476 heartbeat IPC: 0.568194 cumulative IPC: 0.568194 (Simulation time: 0 hr 12 min 20 sec) 
Heartbeat CPU 0 instructions: 70000001 cycles: 53226759 heartbeat IPC: 0.562452 cumulative IPC: 0.565309 (Simulation time: 0 hr 15 min 1 sec) 
Heartbeat CPU 0 instructions: 80000000 cycles: 70830000 heartbeat IPC: 0.568077 cumulative IPC: 0.566229 (Simulation time: 0 hr 17 min 45 sec) 
Heartbeat CPU 0 instructions: 90000002 cycles: 88488410 heartbeat IPC: 0.566303 cumulative IPC: 0.566247 (Simulation time: 0 hr 20 min 16 sec) 
Heartbeat CPU 0 instructions: 100000001 cycles: 106169518 heartbeat IPC: 0.565575 cumulative IPC: 0.566113 (Simulation time: 0 hr 22 min 56 sec) 
Finished CPU 0 instructions: 50000002 cycles: 88321651 cumulative IPC: 0.566113 (Simulation time: 0 hr 22 min 56 sec) 

ChampSim completed all CPUs

Region of Interest Statistics

CPU 0 cumulative IPC: 0.566113 instructions: 50000002 cycles: 88321651

SHEET
IPC : 0.566113

L1D TOTAL     ACCESS:   18657458  HIT:   16439743  MISS:    2217715
L1D LOAD      ACCESS:    7058814  HIT:    6329527  MISS:     729287
L1D RFO       ACCESS:    5818823  HIT:    4866601  MISS:     952222
L1D PREFETCH  ACCESS:    5779821  HIT:    5243615  MISS:     536206
L1D WRITEBACK ACCESS:          0  HIT:          0  MISS:          0
L1D PREFETCH  REQUESTED:    7100160  ISSUED:    6896796  USEFUL:     196433  USELESS:     339862
L1D AVERAGE MISS LATENCY: 173.969 cycles
L1D

SHEET
L1D-total_access : 18657458
L1D-total_hit : 16439743
L1D-total_miss : 2217715
L1D-load_access : 7058814
L1D-load_hit : 6329527
L1D-load_miss : 729287
L1D-rfo_access : 5818823
L1D-rfo_hit : 4866601
L1D-rfo_miss : 952222
L1D-prefetch_access : 5779821
L1D-prefetch_hit : 5243615
L1D-prefetch_miss : 536206
L1D-writeback_access : 0
L1D-writeback_hit : 0
L1D-writeback_miss : 0
L1D-prefetch_requested : 7100160
L1D-prefetch_issued : 6896796
L1D-prefetch_useful : 196433
L1D-prefetch_useless : 339862
L1D-Avg_miss_latency : 173.969

L1I TOTAL     ACCESS:   17140756  HIT:   14644103  MISS:    2496653
L1I LOAD      ACCESS:   10044936  HIT:    9800045  MISS:     244891
L1I RFO       ACCESS:          0  HIT:          0  MISS:          0
L1I PREFETCH  ACCESS:    7095820  HIT:    4844058  MISS:    2251762
L1I WRITEBACK ACCESS:          0  HIT:          0  MISS:          0
L1I PREFETCH  REQUESTED:    7443205  ISSUED:    7369449  USEFUL:    2068733  USELESS:     183056
L1I AVERAGE MISS LATENCY: 17.5258 cycles
L1I

SHEET
L1I-total_access : 17140756
L1I-total_hit : 14644103
L1I-total_miss : 2496653
L1I-load_access : 10044936
L1I-load_hit : 9800045
L1I-load_miss : 244891
L1I-rfo_access : 0
L1I-rfo_hit : 0
L1I-rfo_miss : 0
L1I-prefetch_access : 7095820
L1I-prefetch_hit : 4844058
L1I-prefetch_miss : 2251762
L1I-writeback_access : 0
L1I-writeback_hit : 0
L1I-writeback_miss : 0
L1I-prefetch_requested : 7443205
L1I-prefetch_issued : 7369449
L1I-prefetch_useful : 2068733
L1I-prefetch_useless : 183056
L1I-Avg_miss_latency : 17.5258

L2C TOTAL     ACCESS:    6850121  HIT:    4988399  MISS:    1861722
L2C LOAD      ACCESS:     669252  HIT:     397118  MISS:     272134
L2C RFO       ACCESS:     951738  HIT:      20196  MISS:     931542
L2C PREFETCH  ACCESS:    4059113  HIT:    3403626  MISS:     655487
L2C WRITEBACK ACCESS:    1170018  HIT:    1167459  MISS:       2559
L2C PREFETCH  REQUESTED:    3945563  ISSUED:    3941238  USEFUL:      27284  USELESS:     629112
L2C AVERAGE MISS LATENCY: 212.576 cycles
L2C

SHEET
L2C-total_access : 6850121
L2C-total_hit : 4988399
L2C-total_miss : 1861722
L2C-load_access : 669252
L2C-load_hit : 397118
L2C-load_miss : 272134
L2C-rfo_access : 951738
L2C-rfo_hit : 20196
L2C-rfo_miss : 931542
L2C-prefetch_access : 4059113
L2C-prefetch_hit : 3403626
L2C-prefetch_miss : 655487
L2C-writeback_access : 1170018
L2C-writeback_hit : 1167459
L2C-writeback_miss : 2559
L2C-prefetch_requested : 3945563
L2C-prefetch_issued : 3941238
L2C-prefetch_useful : 27284
L2C-prefetch_useless : 629112
L2C-Avg_miss_latency : 212.576

LLC TOTAL     ACCESS:    4037264  HIT:    2611135  MISS:    1426129
LLC LOAD      ACCESS:     272015  HIT:     174326  MISS:      97689
LLC RFO       ACCESS:     931541  HIT:     137894  MISS:     793647
LLC PREFETCH  ACCESS:    1733037  HIT:    1200175  MISS:     532862
LLC WRITEBACK ACCESS:    1100671  HIT:    1098740  MISS:       1931
LLC PREFETCH  REQUESTED:          0  ISSUED:          0  USEFUL:      30223  USELESS:     502476
LLC AVERAGE MISS LATENCY: 276.528 cycles
LLC

SHEET
LLC-total_access : 4037264
LLC-total_hit : 2611135
LLC-total_miss : 1426129
LLC-load_access : 272015
LLC-load_hit : 174326
LLC-load_miss : 97689
LLC-rfo_access : 931541
LLC-rfo_hit : 137894
LLC-rfo_miss : 793647
LLC-prefetch_access : 1733037
LLC-prefetch_hit : 1200175
LLC-prefetch_miss : 532862
LLC-writeback_access : 1100671
LLC-writeback_hit : 1098740
LLC-writeback_miss : 1931
LLC-prefetch_requested : 0
LLC-prefetch_issued : 0
LLC-prefetch_useful : 30223
LLC-prefetch_useless : 502476
LLC-Avg_miss_latency : 276.528

Major fault: 0 Minor fault: 22442



Printing Logs
statHeadFound: 454924
statHeadMissing: 1145571
statStreamBufferHit: 11586641
statPrefetchEntryFound: 4441654
statCompactorMatch: 10959467
statStreamTrackerLookup: 13187136
statRecord: 2227669
statGetPointer: 1600495
statEnqueuePrefetch: 13926224
statPrefetchQueueIsFull: 396
StreamBufferHitRate: 0.878632
Regions' size: 1290
next_region_correct: 1888823
next_region_wrong: 337538
next_region_correct_prediction: 0.84839
statStreamBufferLookups: 949473792
statL1iLookups: 111409792
statCompactorLookups: 474736896
morteza: start

SHEET
mana_table_access_counter : 6669701
hobp_table_access_counter : 19754667
sab_access_counter : 16028295
srq_access_counter : 14331882

morteza: end
CPU 0 L1D next line prefetcher final stats

DRAM Statistics
 CHANNEL 0
 RQ ROW_BUFFER_HIT:     402445  ROW_BUFFER_MISS:    1021511
 DBUS_CONGESTED:    1423023
 WQ ROW_BUFFER_HIT:     270542  ROW_BUFFER_MISS:     622057  FULL:          0

 AVG_CONGESTED_CYCLE: 6

CPU 0 Branch Prediction Accuracy: 99.7114% MPKI: 0.47678 Average ROB Occupancy at Mispredict: 209.722

Branch types
NOT_BRANCH: 41741008 83.482%
BRANCH_DIRECT_JUMP: 458652 0.917304%
BRANCH_INDIRECT: 48282 0.096564%
BRANCH_CONDITIONAL: 5930881 11.8618%
BRANCH_DIRECT_CALL: 744230 1.48846%
BRANCH_INDIRECT_CALL: 166336 0.332672%
BRANCH_RETURN: 910589 1.82118%
BRANCH_OTHER: 0 0%

