Initialize SIGNATURE TABLE
ST_SET: 1
ST_WAY: 256
ST_TAG_BIT: 16
ST_TAG_MASK: ffff

Initialize PATTERN TABLE
PT_SET: 512
PT_WAY: 4
SIG_DELTA_BIT: 7
C_SIG_BIT: 4
C_DELTA_BIT: 4

Initialize PREFETCH FILTER
FILTER_SET: 1024
MANA initialize 
tds: 2 tdm: 2
size MANA SINGLE: 15.5 KB
size MANA NULTIPLE: 0 KB
size HOBPT: 0.703125 KB
size SRQ: 0.14502 KB
size SABs: 0.290039 KB
size prefetch queue: 0.453125 KB
total: 17.0913 KB

*** ChampSim Multicore Out-of-Order Simulator ***

Warmup Instructions: 50000000
Simulation Instructions: 50000000
Number of CPUs: 1
LLC sets: 2048
LLC ways: 16
Off-chip DRAM Size: 4096 MB Channels: 1 Width: 64-bit Data Rate: 3200 MT/s

CPU 0 runs /home/mbaradaran/ChampSim/dpc3_traces/server_031.champsimtrace.xz
CPU 0 L1D next line prefetcher
Heartbeat CPU 0 instructions: 10000003 cycles: 3533767 heartbeat IPC: 2.82984 cumulative IPC: 2.82984 (Simulation time: 0 hr 1 min 58 sec) 
Heartbeat CPU 0 instructions: 20000002 cycles: 7066643 heartbeat IPC: 2.83055 cumulative IPC: 2.8302 (Simulation time: 0 hr 3 min 59 sec) 
Heartbeat CPU 0 instructions: 30000002 cycles: 10600660 heartbeat IPC: 2.82964 cumulative IPC: 2.83001 (Simulation time: 0 hr 6 min 2 sec) 
Heartbeat CPU 0 instructions: 40000003 cycles: 14129124 heartbeat IPC: 2.83409 cumulative IPC: 2.83103 (Simulation time: 0 hr 7 min 59 sec) 
Heartbeat CPU 0 instructions: 50000000 cycles: 17659831 heartbeat IPC: 2.83229 cumulative IPC: 2.83128 (Simulation time: 0 hr 9 min 59 sec) 

Warmup complete CPU 0 instructions: 50000004 cycles: 17659832 (Simulation time: 0 hr 9 min 59 sec) 

Heartbeat CPU 0 instructions: 60000001 cycles: 25449476 heartbeat IPC: 1.28376 cumulative IPC: 1.28376 (Simulation time: 0 hr 12 min 0 sec) 
Heartbeat CPU 0 instructions: 70000002 cycles: 33304855 heartbeat IPC: 1.27301 cumulative IPC: 1.27836 (Simulation time: 0 hr 13 min 56 sec) 
*** Reached end of trace for Core: 0 Repeating trace: /home/mbaradaran/ChampSim/dpc3_traces/server_031.champsimtrace.xz
Heartbeat CPU 0 instructions: 80000000 cycles: 40999438 heartbeat IPC: 1.29962 cumulative IPC: 1.28537 (Simulation time: 0 hr 15 min 49 sec) 
Heartbeat CPU 0 instructions: 90000003 cycles: 48739069 heartbeat IPC: 1.29205 cumulative IPC: 1.28703 (Simulation time: 0 hr 17 min 45 sec) 
Heartbeat CPU 0 instructions: 100000000 cycles: 56432103 heartbeat IPC: 1.29988 cumulative IPC: 1.28958 (Simulation time: 0 hr 19 min 45 sec) 
Finished CPU 0 instructions: 50000000 cycles: 38772276 cumulative IPC: 1.28958 (Simulation time: 0 hr 19 min 45 sec) 

ChampSim completed all CPUs

Region of Interest Statistics

CPU 0 cumulative IPC: 1.28958 instructions: 50000000 cycles: 38772276

SHEET
IPC : 1.28958

L1D TOTAL     ACCESS:   19855108  HIT:   17950251  MISS:    1904857
L1D LOAD      ACCESS:    6926862  HIT:    6054708  MISS:     872154
L1D RFO       ACCESS:    6335401  HIT:    6043871  MISS:     291530
L1D PREFETCH  ACCESS:    6592845  HIT:    5851672  MISS:     741173
L1D WRITEBACK ACCESS:          0  HIT:          0  MISS:          0
L1D PREFETCH  REQUESTED:    6986693  ISSUED:    6884091  USEFUL:     175400  USELESS:     565774
L1D AVERAGE MISS LATENCY: 22.2556 cycles
L1D

SHEET
L1D-total_access : 19855108
L1D-total_hit : 17950251
L1D-total_miss : 1904857
L1D-load_access : 6926862
L1D-load_hit : 6054708
L1D-load_miss : 872154
L1D-rfo_access : 6335401
L1D-rfo_hit : 6043871
L1D-rfo_miss : 291530
L1D-prefetch_access : 6592845
L1D-prefetch_hit : 5851672
L1D-prefetch_miss : 741173
L1D-writeback_access : 0
L1D-writeback_hit : 0
L1D-writeback_miss : 0
L1D-prefetch_requested : 6986693
L1D-prefetch_issued : 6884091
L1D-prefetch_useful : 175400
L1D-prefetch_useless : 565774
L1D-Avg_miss_latency : 22.2556

L1I TOTAL     ACCESS:   19509541  HIT:   14957740  MISS:    4551801
L1I LOAD      ACCESS:    9433807  HIT:    8605655  MISS:     828152
L1I RFO       ACCESS:          0  HIT:          0  MISS:          0
L1I PREFETCH  ACCESS:   10075734  HIT:    6352085  MISS:    3723649
L1I WRITEBACK ACCESS:          0  HIT:          0  MISS:          0
L1I PREFETCH  REQUESTED:   11188904  ISSUED:   10912142  USEFUL:    2287154  USELESS:    1436490
L1I AVERAGE MISS LATENCY: 16.0968 cycles
L1I

SHEET
L1I-total_access : 19509541
L1I-total_hit : 14957740
L1I-total_miss : 4551801
L1I-load_access : 9433807
L1I-load_hit : 8605655
L1I-load_miss : 828152
L1I-rfo_access : 0
L1I-rfo_hit : 0
L1I-rfo_miss : 0
L1I-prefetch_access : 10075734
L1I-prefetch_hit : 6352085
L1I-prefetch_miss : 3723649
L1I-writeback_access : 0
L1I-writeback_hit : 0
L1I-writeback_miss : 0
L1I-prefetch_requested : 11188904
L1I-prefetch_issued : 10912142
L1I-prefetch_useful : 2287154
L1I-prefetch_useless : 1436490
L1I-Avg_miss_latency : 16.0968

L2C TOTAL     ACCESS:    8979311  HIT:    8433335  MISS:     545976
L2C LOAD      ACCESS:    1450067  HIT:    1288851  MISS:     161216
L2C RFO       ACCESS:     289591  HIT:     248839  MISS:      40752
L2C PREFETCH  ACCESS:    6622900  HIT:    6280256  MISS:     342644
L2C WRITEBACK ACCESS:     616753  HIT:     615389  MISS:       1364
L2C PREFETCH  REQUESTED:    8313646  ISSUED:    8274816  USEFUL:      12956  USELESS:     328768
L2C AVERAGE MISS LATENCY: 46.1136 cycles
L2C

SHEET
L2C-total_access : 8979311
L2C-total_hit : 8433335
L2C-total_miss : 545976
L2C-load_access : 1450067
L2C-load_hit : 1288851
L2C-load_miss : 161216
L2C-rfo_access : 289591
L2C-rfo_hit : 248839
L2C-rfo_miss : 40752
L2C-prefetch_access : 6622900
L2C-prefetch_hit : 6280256
L2C-prefetch_miss : 342644
L2C-writeback_access : 616753
L2C-writeback_hit : 615389
L2C-writeback_miss : 1364
L2C-prefetch_requested : 8313646
L2C-prefetch_issued : 8274816
L2C-prefetch_useful : 12956
L2C-prefetch_useless : 328768
L2C-Avg_miss_latency : 46.1136

LLC TOTAL     ACCESS:    2810367  HIT:    2728870  MISS:      81497
LLC LOAD      ACCESS:     161175  HIT:     142476  MISS:      18699
LLC RFO       ACCESS:      40717  HIT:      36469  MISS:       4248
LLC PREFETCH  ACCESS:    2532097  HIT:    2474135  MISS:      57962
LLC WRITEBACK ACCESS:      76378  HIT:      75790  MISS:        588
LLC PREFETCH  REQUESTED:          0  ISSUED:          0  USEFUL:       2956  USELESS:      54432
LLC AVERAGE MISS LATENCY: 159.728 cycles
LLC

SHEET
LLC-total_access : 2810367
LLC-total_hit : 2728870
LLC-total_miss : 81497
LLC-load_access : 161175
LLC-load_hit : 142476
LLC-load_miss : 18699
LLC-rfo_access : 40717
LLC-rfo_hit : 36469
LLC-rfo_miss : 4248
LLC-prefetch_access : 2532097
LLC-prefetch_hit : 2474135
LLC-prefetch_miss : 57962
LLC-writeback_access : 76378
LLC-writeback_hit : 75790
LLC-writeback_miss : 588
LLC-prefetch_requested : 0
LLC-prefetch_issued : 0
LLC-prefetch_useful : 2956
LLC-prefetch_useless : 54432
LLC-Avg_miss_latency : 159.728

Major fault: 0 Minor fault: 6041



Printing Logs
statHeadFound: 1054435
statHeadMissing: 1059703
statStreamBufferHit: 12279522
statPrefetchEntryFound: 7354399
statCompactorMatch: 11629859
statStreamTrackerLookup: 14393660
statRecord: 2763801
statGetPointer: 2114138
statEnqueuePrefetch: 21713585
statPrefetchQueueIsFull: 98582
StreamBufferHitRate: 0.85312
Regions' size: 1980
next_region_correct: 1959870
next_region_wrong: 801933
next_region_correct_prediction: 0.709634
statStreamBufferLookups: 1036343520
statL1iLookups: 173708680
statCompactorLookups: 518171760
morteza: start

SHEET
mana_table_access_counter : 10216764
hobp_table_access_counter : 26964737
sab_access_counter : 19633921
srq_access_counter : 15841789

morteza: end
CPU 0 L1D next line prefetcher final stats

DRAM Statistics
 CHANNEL 0
 RQ ROW_BUFFER_HIT:      22512  ROW_BUFFER_MISS:      58390
 DBUS_CONGESTED:      37211
 WQ ROW_BUFFER_HIT:        740  ROW_BUFFER_MISS:       5324  FULL:          0

 AVG_CONGESTED_CYCLE: 5

CPU 0 Branch Prediction Accuracy: 99.6894% MPKI: 0.58048 Average ROB Occupancy at Mispredict: 129.47

Branch types
NOT_BRANCH: 40655579 81.3112%
BRANCH_DIRECT_JUMP: 546483 1.09297%
BRANCH_INDIRECT: 172433 0.344866%
BRANCH_CONDITIONAL: 6207571 12.4151%
BRANCH_DIRECT_CALL: 1018498 2.037%
BRANCH_INDIRECT_CALL: 190373 0.380746%
BRANCH_RETURN: 1208855 2.41771%
BRANCH_OTHER: 0 0%

