Initialize SIGNATURE TABLE
ST_SET: 1
ST_WAY: 256
ST_TAG_BIT: 16
ST_TAG_MASK: ffff

Initialize PATTERN TABLE
PT_SET: 512
PT_WAY: 4
SIG_DELTA_BIT: 7
C_SIG_BIT: 4
C_DELTA_BIT: 4

Initialize PREFETCH FILTER
FILTER_SET: 1024
MANA initialize 
tds: 2 tdm: 2
size MANA SINGLE: 15.5 KB
size MANA NULTIPLE: 0 KB
size HOBPT: 0.703125 KB
size SRQ: 0.14502 KB
size SABs: 0.290039 KB
size prefetch queue: 0.453125 KB
total: 17.0913 KB

*** ChampSim Multicore Out-of-Order Simulator ***

Warmup Instructions: 50000000
Simulation Instructions: 50000000
Number of CPUs: 1
LLC sets: 2048
LLC ways: 16
Off-chip DRAM Size: 4096 MB Channels: 1 Width: 64-bit Data Rate: 3200 MT/s

CPU 0 runs /home/mbaradaran/ChampSim/dpc3_traces/server_029.champsimtrace.xz
CPU 0 L1D next line prefetcher
Heartbeat CPU 0 instructions: 10000001 cycles: 3502636 heartbeat IPC: 2.85499 cumulative IPC: 2.85499 (Simulation time: 0 hr 2 min 2 sec) 
Heartbeat CPU 0 instructions: 20000002 cycles: 7005215 heartbeat IPC: 2.85504 cumulative IPC: 2.85502 (Simulation time: 0 hr 3 min 57 sec) 
Heartbeat CPU 0 instructions: 30000003 cycles: 10509369 heartbeat IPC: 2.85376 cumulative IPC: 2.8546 (Simulation time: 0 hr 5 min 59 sec) 
Heartbeat CPU 0 instructions: 40000000 cycles: 14020847 heartbeat IPC: 2.8478 cumulative IPC: 2.85289 (Simulation time: 0 hr 8 min 1 sec) 
Heartbeat CPU 0 instructions: 50000000 cycles: 17530587 heartbeat IPC: 2.84921 cumulative IPC: 2.85216 (Simulation time: 0 hr 9 min 57 sec) 

Warmup complete CPU 0 instructions: 50000004 cycles: 17530588 (Simulation time: 0 hr 9 min 57 sec) 

Heartbeat CPU 0 instructions: 60000000 cycles: 25361587 heartbeat IPC: 1.27698 cumulative IPC: 1.27698 (Simulation time: 0 hr 11 min 51 sec) 
Heartbeat CPU 0 instructions: 70000003 cycles: 33350802 heartbeat IPC: 1.25169 cumulative IPC: 1.26421 (Simulation time: 0 hr 13 min 51 sec) 
Heartbeat CPU 0 instructions: 80000002 cycles: 41169002 heartbeat IPC: 1.27907 cumulative IPC: 1.26912 (Simulation time: 0 hr 15 min 45 sec) 
*** Reached end of trace for Core: 0 Repeating trace: /home/mbaradaran/ChampSim/dpc3_traces/server_029.champsimtrace.xz
Heartbeat CPU 0 instructions: 90000000 cycles: 48879833 heartbeat IPC: 1.29688 cumulative IPC: 1.27595 (Simulation time: 0 hr 17 min 37 sec) 
Heartbeat CPU 0 instructions: 100000003 cycles: 56584681 heartbeat IPC: 1.29788 cumulative IPC: 1.28028 (Simulation time: 0 hr 19 min 27 sec) 
Finished CPU 0 instructions: 50000003 cycles: 39054094 cumulative IPC: 1.28028 (Simulation time: 0 hr 19 min 27 sec) 

ChampSim completed all CPUs

Region of Interest Statistics

CPU 0 cumulative IPC: 1.28028 instructions: 50000003 cycles: 39054094

SHEET
IPC : 1.28028

L1D TOTAL     ACCESS:   19410866  HIT:   17313732  MISS:    2097134
L1D LOAD      ACCESS:    6900328  HIT:    5834733  MISS:    1065595
L1D RFO       ACCESS:    6123245  HIT:    5837394  MISS:     285851
L1D PREFETCH  ACCESS:    6387293  HIT:    5641605  MISS:     745688
L1D WRITEBACK ACCESS:          0  HIT:          0  MISS:          0
L1D PREFETCH  REQUESTED:    6961218  ISSUED:    6862328  USEFUL:     175600  USELESS:     570079
L1D AVERAGE MISS LATENCY: 21.0892 cycles
L1D

SHEET
L1D-total_access : 19410866
L1D-total_hit : 17313732
L1D-total_miss : 2097134
L1D-load_access : 6900328
L1D-load_hit : 5834733
L1D-load_miss : 1065595
L1D-rfo_access : 6123245
L1D-rfo_hit : 5837394
L1D-rfo_miss : 285851
L1D-prefetch_access : 6387293
L1D-prefetch_hit : 5641605
L1D-prefetch_miss : 745688
L1D-writeback_access : 0
L1D-writeback_hit : 0
L1D-writeback_miss : 0
L1D-prefetch_requested : 6961218
L1D-prefetch_issued : 6862328
L1D-prefetch_useful : 175600
L1D-prefetch_useless : 570079
L1D-Avg_miss_latency : 21.0892

L1I TOTAL     ACCESS:   19402526  HIT:   14970225  MISS:    4432301
L1I LOAD      ACCESS:    9544379  HIT:    8737520  MISS:     806859
L1I RFO       ACCESS:          0  HIT:          0  MISS:          0
L1I PREFETCH  ACCESS:    9858147  HIT:    6232705  MISS:    3625442
L1I WRITEBACK ACCESS:          0  HIT:          0  MISS:          0
L1I PREFETCH  REQUESTED:   10938386  ISSUED:   10671082  USEFUL:    2217134  USELESS:    1408338
L1I AVERAGE MISS LATENCY: 16.0534 cycles
L1I

SHEET
L1I-total_access : 19402526
L1I-total_hit : 14970225
L1I-total_miss : 4432301
L1I-load_access : 9544379
L1I-load_hit : 8737520
L1I-load_miss : 806859
L1I-rfo_access : 0
L1I-rfo_hit : 0
L1I-rfo_miss : 0
L1I-prefetch_access : 9858147
L1I-prefetch_hit : 6232705
L1I-prefetch_miss : 3625442
L1I-writeback_access : 0
L1I-writeback_hit : 0
L1I-writeback_miss : 0
L1I-prefetch_requested : 10938386
L1I-prefetch_issued : 10671082
L1I-prefetch_useful : 2217134
L1I-prefetch_useless : 1408338
L1I-Avg_miss_latency : 16.0534

L2C TOTAL     ACCESS:    9012768  HIT:    8420101  MISS:     592667
L2C LOAD      ACCESS:    1515310  HIT:    1330426  MISS:     184884
L2C RFO       ACCESS:     283785  HIT:     235545  MISS:      48240
L2C PREFETCH  ACCESS:    6603027  HIT:    6245373  MISS:     357654
L2C WRITEBACK ACCESS:     610646  HIT:     608757  MISS:       1889
L2C PREFETCH  REQUESTED:    8135683  ISSUED:    8099667  USEFUL:      19095  USELESS:     337692
L2C AVERAGE MISS LATENCY: 43.5474 cycles
L2C

SHEET
L2C-total_access : 9012768
L2C-total_hit : 8420101
L2C-total_miss : 592667
L2C-load_access : 1515310
L2C-load_hit : 1330426
L2C-load_miss : 184884
L2C-rfo_access : 283785
L2C-rfo_hit : 235545
L2C-rfo_miss : 48240
L2C-prefetch_access : 6603027
L2C-prefetch_hit : 6245373
L2C-prefetch_miss : 357654
L2C-writeback_access : 610646
L2C-writeback_hit : 608757
L2C-writeback_miss : 1889
L2C-prefetch_requested : 8135683
L2C-prefetch_issued : 8099667
L2C-prefetch_useful : 19095
L2C-prefetch_useless : 337692
L2C-Avg_miss_latency : 43.5474

LLC TOTAL     ACCESS:    2813890  HIT:    2738662  MISS:      75228
LLC LOAD      ACCESS:     184671  HIT:     167614  MISS:      17057
LLC RFO       ACCESS:      48240  HIT:      44581  MISS:       3659
LLC PREFETCH  ACCESS:    2480404  HIT:    2426528  MISS:      53876
LLC WRITEBACK ACCESS:     100575  HIT:      99939  MISS:        636
LLC PREFETCH  REQUESTED:          0  ISSUED:          0  USEFUL:       2781  USELESS:      51672
LLC AVERAGE MISS LATENCY: 159.074 cycles
LLC

SHEET
LLC-total_access : 2813890
LLC-total_hit : 2738662
LLC-total_miss : 75228
LLC-load_access : 184671
LLC-load_hit : 167614
LLC-load_miss : 17057
LLC-rfo_access : 48240
LLC-rfo_hit : 44581
LLC-rfo_miss : 3659
LLC-prefetch_access : 2480404
LLC-prefetch_hit : 2426528
LLC-prefetch_miss : 53876
LLC-writeback_access : 100575
LLC-writeback_hit : 99939
LLC-writeback_miss : 636
LLC-prefetch_requested : 0
LLC-prefetch_issued : 0
LLC-prefetch_useful : 2781
LLC-prefetch_useless : 51672
LLC-Avg_miss_latency : 159.074

Major fault: 0 Minor fault: 5918



Printing Logs
statHeadFound: 1024707
statHeadMissing: 1036158
statStreamBufferHit: 12383905
statPrefetchEntryFound: 7175147
statCompactorMatch: 11770479
statStreamTrackerLookup: 14444770
statRecord: 2674291
statGetPointer: 2060865
statEnqueuePrefetch: 21159330
statPrefetchQueueIsFull: 91545
StreamBufferHitRate: 0.857328
Regions' size: 1830
next_region_correct: 1895441
next_region_wrong: 777002
next_region_correct_prediction: 0.709254
statStreamBufferLookups: 1040023440
statL1iLookups: 169274640
statCompactorLookups: 520011720
morteza: start

SHEET
mana_table_access_counter : 9940965
hobp_table_access_counter : 26207315
sab_access_counter : 19559052
srq_access_counter : 15834273

morteza: end
CPU 0 L1D next line prefetcher final stats

DRAM Statistics
 CHANNEL 0
 RQ ROW_BUFFER_HIT:      21345  ROW_BUFFER_MISS:      53230
 DBUS_CONGESTED:      33768
 WQ ROW_BUFFER_HIT:        558  ROW_BUFFER_MISS:       4070  FULL:          0

 AVG_CONGESTED_CYCLE: 5

CPU 0 Branch Prediction Accuracy: 99.7245% MPKI: 0.51862 Average ROB Occupancy at Mispredict: 135.127

Branch types
NOT_BRANCH: 40586621 81.1732%
BRANCH_DIRECT_JUMP: 525211 1.05042%
BRANCH_INDIRECT: 166359 0.332718%
BRANCH_CONDITIONAL: 6373091 12.7462%
BRANCH_DIRECT_CALL: 989262 1.97852%
BRANCH_INDIRECT_CALL: 184984 0.369968%
BRANCH_RETURN: 1174250 2.3485%
BRANCH_OTHER: 0 0%

