Initialize SIGNATURE TABLE
ST_SET: 1
ST_WAY: 256
ST_TAG_BIT: 16
ST_TAG_MASK: ffff

Initialize PATTERN TABLE
PT_SET: 512
PT_WAY: 4
SIG_DELTA_BIT: 7
C_SIG_BIT: 4
C_DELTA_BIT: 4

Initialize PREFETCH FILTER
FILTER_SET: 1024
MANA initialize 
tds: 2 tdm: 2
size MANA SINGLE: 15.5 KB
size MANA NULTIPLE: 0 KB
size HOBPT: 0.703125 KB
size SRQ: 0.14502 KB
size SABs: 0.290039 KB
size prefetch queue: 0.453125 KB
total: 17.0913 KB

*** ChampSim Multicore Out-of-Order Simulator ***

Warmup Instructions: 50000000
Simulation Instructions: 50000000
Number of CPUs: 1
LLC sets: 2048
LLC ways: 16
Off-chip DRAM Size: 4096 MB Channels: 1 Width: 64-bit Data Rate: 3200 MT/s

CPU 0 runs /home/mbaradaran/ChampSim/dpc3_traces/server_033.champsimtrace.xz
CPU 0 L1D next line prefetcher
Heartbeat CPU 0 instructions: 10000001 cycles: 3343033 heartbeat IPC: 2.9913 cumulative IPC: 2.9913 (Simulation time: 0 hr 1 min 59 sec) 
Heartbeat CPU 0 instructions: 20000002 cycles: 6684232 heartbeat IPC: 2.99294 cumulative IPC: 2.99212 (Simulation time: 0 hr 3 min 50 sec) 
Heartbeat CPU 0 instructions: 30000001 cycles: 10015443 heartbeat IPC: 3.00191 cumulative IPC: 2.99537 (Simulation time: 0 hr 5 min 44 sec) 
Heartbeat CPU 0 instructions: 40000000 cycles: 13355410 heartbeat IPC: 2.99404 cumulative IPC: 2.99504 (Simulation time: 0 hr 7 min 36 sec) 
Heartbeat CPU 0 instructions: 50000000 cycles: 16694576 heartbeat IPC: 2.99476 cumulative IPC: 2.99498 (Simulation time: 0 hr 9 min 32 sec) 

Warmup complete CPU 0 instructions: 50000004 cycles: 16694577 (Simulation time: 0 hr 9 min 32 sec) 

Heartbeat CPU 0 instructions: 60000000 cycles: 23340014 heartbeat IPC: 1.50479 cumulative IPC: 1.50479 (Simulation time: 0 hr 11 min 25 sec) 
Heartbeat CPU 0 instructions: 70000000 cycles: 29934007 heartbeat IPC: 1.51653 cumulative IPC: 1.51064 (Simulation time: 0 hr 13 min 15 sec) 
Heartbeat CPU 0 instructions: 80000000 cycles: 37400671 heartbeat IPC: 1.33929 cumulative IPC: 1.44885 (Simulation time: 0 hr 15 min 3 sec) 
Heartbeat CPU 0 instructions: 90000003 cycles: 44111783 heartbeat IPC: 1.49007 cumulative IPC: 1.45894 (Simulation time: 0 hr 16 min 52 sec) 
Heartbeat CPU 0 instructions: 100000003 cycles: 50787495 heartbeat IPC: 1.49797 cumulative IPC: 1.46658 (Simulation time: 0 hr 18 min 46 sec) 
Finished CPU 0 instructions: 50000003 cycles: 34092919 cumulative IPC: 1.46658 (Simulation time: 0 hr 18 min 46 sec) 

ChampSim completed all CPUs

Region of Interest Statistics

CPU 0 cumulative IPC: 1.46658 instructions: 50000003 cycles: 34092919

SHEET
IPC : 1.46658

L1D TOTAL     ACCESS:   18428519  HIT:   16946181  MISS:    1482338
L1D LOAD      ACCESS:    6234749  HIT:    5552009  MISS:     682740
L1D RFO       ACCESS:    6167759  HIT:    6017733  MISS:     150026
L1D PREFETCH  ACCESS:    6026011  HIT:    5376439  MISS:     649572
L1D WRITEBACK ACCESS:          0  HIT:          0  MISS:          0
L1D PREFETCH  REQUESTED:    6276945  ISSUED:    6163119  USEFUL:     141257  USELESS:     508322
L1D AVERAGE MISS LATENCY: 23.3972 cycles
L1D

SHEET
L1D-total_access : 18428519
L1D-total_hit : 16946181
L1D-total_miss : 1482338
L1D-load_access : 6234749
L1D-load_hit : 5552009
L1D-load_miss : 682740
L1D-rfo_access : 6167759
L1D-rfo_hit : 6017733
L1D-rfo_miss : 150026
L1D-prefetch_access : 6026011
L1D-prefetch_hit : 5376439
L1D-prefetch_miss : 649572
L1D-writeback_access : 0
L1D-writeback_hit : 0
L1D-writeback_miss : 0
L1D-prefetch_requested : 6276945
L1D-prefetch_issued : 6163119
L1D-prefetch_useful : 141257
L1D-prefetch_useless : 508322
L1D-Avg_miss_latency : 23.3972

L1I TOTAL     ACCESS:   19135634  HIT:   14727741  MISS:    4407893
L1I LOAD      ACCESS:    9545765  HIT:    8935009  MISS:     610756
L1I RFO       ACCESS:          0  HIT:          0  MISS:          0
L1I PREFETCH  ACCESS:    9589869  HIT:    5792732  MISS:    3797137
L1I WRITEBACK ACCESS:          0  HIT:          0  MISS:          0
L1I PREFETCH  REQUESTED:   10588207  ISSUED:   10368856  USEFUL:    2791060  USELESS:    1006066
L1I AVERAGE MISS LATENCY: 14.8402 cycles
L1I

SHEET
L1I-total_access : 19135634
L1I-total_hit : 14727741
L1I-total_miss : 4407893
L1I-load_access : 9545765
L1I-load_hit : 8935009
L1I-load_miss : 610756
L1I-rfo_access : 0
L1I-rfo_hit : 0
L1I-rfo_miss : 0
L1I-prefetch_access : 9589869
L1I-prefetch_hit : 5792732
L1I-prefetch_miss : 3797137
L1I-writeback_access : 0
L1I-writeback_hit : 0
L1I-writeback_miss : 0
L1I-prefetch_requested : 10588207
L1I-prefetch_issued : 10368856
L1I-prefetch_useful : 2791060
L1I-prefetch_useless : 1006066
L1I-Avg_miss_latency : 14.8402

L2C TOTAL     ACCESS:    7943961  HIT:    7654847  MISS:     289114
L2C LOAD      ACCESS:    1139391  HIT:    1015157  MISS:     124234
L2C RFO       ACCESS:     148692  HIT:     129152  MISS:      19540
L2C PREFETCH  ACCESS:    6289395  HIT:    6145398  MISS:     143997
L2C WRITEBACK ACCESS:     366483  HIT:     365140  MISS:       1343
L2C PREFETCH  REQUESTED:    7016471  ISSUED:    7000547  USEFUL:      10317  USELESS:     133074
L2C AVERAGE MISS LATENCY: 48.9837 cycles
L2C

SHEET
L2C-total_access : 7943961
L2C-total_hit : 7654847
L2C-total_miss : 289114
L2C-load_access : 1139391
L2C-load_hit : 1015157
L2C-load_miss : 124234
L2C-rfo_access : 148692
L2C-rfo_hit : 129152
L2C-rfo_miss : 19540
L2C-prefetch_access : 6289395
L2C-prefetch_hit : 6145398
L2C-prefetch_miss : 143997
L2C-writeback_access : 366483
L2C-writeback_hit : 365140
L2C-writeback_miss : 1343
L2C-prefetch_requested : 7016471
L2C-prefetch_issued : 7000547
L2C-prefetch_useful : 10317
L2C-prefetch_useless : 133074
L2C-Avg_miss_latency : 48.9837

LLC TOTAL     ACCESS:    2032419  HIT:    1981379  MISS:      51040
LLC LOAD      ACCESS:     124206  HIT:     110998  MISS:      13208
LLC RFO       ACCESS:      19540  HIT:      17132  MISS:       2408
LLC PREFETCH  ACCESS:    1785081  HIT:    1749878  MISS:      35203
LLC WRITEBACK ACCESS:     103592  HIT:     103371  MISS:        221
LLC PREFETCH  REQUESTED:          0  ISSUED:          0  USEFUL:       6198  USELESS:      28360
LLC AVERAGE MISS LATENCY: 173.088 cycles
LLC

SHEET
LLC-total_access : 2032419
LLC-total_hit : 1981379
LLC-total_miss : 51040
LLC-load_access : 124206
LLC-load_hit : 110998
LLC-load_miss : 13208
LLC-rfo_access : 19540
LLC-rfo_hit : 17132
LLC-rfo_miss : 2408
LLC-prefetch_access : 1785081
LLC-prefetch_hit : 1749878
LLC-prefetch_miss : 35203
LLC-writeback_access : 103592
LLC-writeback_hit : 103371
LLC-writeback_miss : 221
LLC-prefetch_requested : 0
LLC-prefetch_issued : 0
LLC-prefetch_useful : 6198
LLC-prefetch_useless : 28360
LLC-Avg_miss_latency : 173.088

Major fault: 0 Minor fault: 2482



Printing Logs
statHeadFound: 805266
statHeadMissing: 470286
statStreamBufferHit: 13842749
statPrefetchEntryFound: 6822315
statCompactorMatch: 12066378
statStreamTrackerLookup: 15118301
statRecord: 3051923
statGetPointer: 1275552
statEnqueuePrefetch: 20569263
statPrefetchQueueIsFull: 9544
StreamBufferHitRate: 0.915629
Regions' size: 1392
next_region_correct: 2360278
next_region_wrong: 690235
next_region_correct_prediction: 0.773732
statStreamBufferLookups: 1088517672
statL1iLookups: 164554104
statCompactorLookups: 544258836
morteza: start

SHEET
mana_table_access_counter : 9883764
hobp_table_access_counter : 24141717
sab_access_counter : 20665064
srq_access_counter : 16674294

morteza: end
CPU 0 L1D next line prefetcher final stats

DRAM Statistics
 CHANNEL 0
 RQ ROW_BUFFER_HIT:       8673  ROW_BUFFER_MISS:      42144
 DBUS_CONGESTED:      22639
 WQ ROW_BUFFER_HIT:       3277  ROW_BUFFER_MISS:      15103  FULL:          0

 AVG_CONGESTED_CYCLE: 5

CPU 0 Branch Prediction Accuracy: 99.9029% MPKI: 0.19006 Average ROB Occupancy at Mispredict: 178.858

Branch types
NOT_BRANCH: 40217131 80.4343%
BRANCH_DIRECT_JUMP: 774600 1.5492%
BRANCH_INDIRECT: 108806 0.217612%
BRANCH_CONDITIONAL: 6379334 12.7587%
BRANCH_DIRECT_CALL: 1048809 2.09762%
BRANCH_INDIRECT_CALL: 211109 0.422218%
BRANCH_RETURN: 1259926 2.51985%
BRANCH_OTHER: 0 0%

