Initialize SIGNATURE TABLE
ST_SET: 1
ST_WAY: 256
ST_TAG_BIT: 16
ST_TAG_MASK: ffff

Initialize PATTERN TABLE
PT_SET: 512
PT_WAY: 4
SIG_DELTA_BIT: 7
C_SIG_BIT: 4
C_DELTA_BIT: 4

Initialize PREFETCH FILTER
FILTER_SET: 1024
MANA initialize 
tds: 2 tdm: 2
size MANA SINGLE: 15.5 KB
size MANA NULTIPLE: 0 KB
size HOBPT: 0.703125 KB
size SRQ: 0.14502 KB
size SABs: 0.290039 KB
size prefetch queue: 0.453125 KB
total: 17.0913 KB

*** ChampSim Multicore Out-of-Order Simulator ***

Warmup Instructions: 50000000
Simulation Instructions: 50000000
Number of CPUs: 1
LLC sets: 2048
LLC ways: 16
Off-chip DRAM Size: 4096 MB Channels: 1 Width: 64-bit Data Rate: 3200 MT/s

CPU 0 runs /home/mbaradaran/ChampSim/dpc3_traces/client_007.champsimtrace.xz
CPU 0 L1D next line prefetcher
Heartbeat CPU 0 instructions: 10000001 cycles: 3643095 heartbeat IPC: 2.74492 cumulative IPC: 2.74492 (Simulation time: 0 hr 1 min 14 sec) 
Heartbeat CPU 0 instructions: 20000003 cycles: 7035806 heartbeat IPC: 2.9475 cumulative IPC: 2.8426 (Simulation time: 0 hr 2 min 26 sec) 
Heartbeat CPU 0 instructions: 30000000 cycles: 10908429 heartbeat IPC: 2.58223 cumulative IPC: 2.75017 (Simulation time: 0 hr 3 min 48 sec) 
Heartbeat CPU 0 instructions: 40000003 cycles: 15068725 heartbeat IPC: 2.40368 cumulative IPC: 2.6545 (Simulation time: 0 hr 5 min 19 sec) 
Heartbeat CPU 0 instructions: 50000002 cycles: 18474621 heartbeat IPC: 2.93608 cumulative IPC: 2.70642 (Simulation time: 0 hr 6 min 35 sec) 

Warmup complete CPU 0 instructions: 50000002 cycles: 18474621 (Simulation time: 0 hr 6 min 35 sec) 

Heartbeat CPU 0 instructions: 60000003 cycles: 25493361 heartbeat IPC: 1.42476 cumulative IPC: 1.42476 (Simulation time: 0 hr 8 min 3 sec) 
Heartbeat CPU 0 instructions: 70000003 cycles: 34404094 heartbeat IPC: 1.12224 cumulative IPC: 1.25553 (Simulation time: 0 hr 9 min 35 sec) 
Heartbeat CPU 0 instructions: 80000002 cycles: 39783546 heartbeat IPC: 1.85893 cumulative IPC: 1.40786 (Simulation time: 0 hr 10 min 36 sec) 
Heartbeat CPU 0 instructions: 90000002 cycles: 47553661 heartbeat IPC: 1.28698 cumulative IPC: 1.37556 (Simulation time: 0 hr 12 min 5 sec) 
Heartbeat CPU 0 instructions: 100000002 cycles: 56519161 heartbeat IPC: 1.11539 cumulative IPC: 1.31425 (Simulation time: 0 hr 13 min 20 sec) 
Finished CPU 0 instructions: 50000000 cycles: 38044540 cumulative IPC: 1.31425 (Simulation time: 0 hr 13 min 20 sec) 

ChampSim completed all CPUs

Region of Interest Statistics

CPU 0 cumulative IPC: 1.31425 instructions: 50000000 cycles: 38044540

SHEET
IPC : 1.31425

L1D TOTAL     ACCESS:   21297496  HIT:   20128153  MISS:    1169343
L1D LOAD      ACCESS:    8418057  HIT:    7879616  MISS:     538441
L1D RFO       ACCESS:    4870810  HIT:    4779580  MISS:      91230
L1D PREFETCH  ACCESS:    8008629  HIT:    7468957  MISS:     539672
L1D WRITEBACK ACCESS:          0  HIT:          0  MISS:          0
L1D PREFETCH  REQUESTED:    8470884  ISSUED:    8228118  USEFUL:     158992  USELESS:     380696
L1D AVERAGE MISS LATENCY: 34.4721 cycles
L1D

SHEET
L1D-total_access : 21297496
L1D-total_hit : 20128153
L1D-total_miss : 1169343
L1D-load_access : 8418057
L1D-load_hit : 7879616
L1D-load_miss : 538441
L1D-rfo_access : 4870810
L1D-rfo_hit : 4779580
L1D-rfo_miss : 91230
L1D-prefetch_access : 8008629
L1D-prefetch_hit : 7468957
L1D-prefetch_miss : 539672
L1D-writeback_access : 0
L1D-writeback_hit : 0
L1D-writeback_miss : 0
L1D-prefetch_requested : 8470884
L1D-prefetch_issued : 8228118
L1D-prefetch_useful : 158992
L1D-prefetch_useless : 380696
L1D-Avg_miss_latency : 34.4721
L1D-Morteza_fill_l2_prefetches : 0

L1I TOTAL     ACCESS:   15060602  HIT:   13896767  MISS:    1163835
L1I LOAD      ACCESS:    9081216  HIT:    8926192  MISS:     155024
L1I RFO       ACCESS:          0  HIT:          0  MISS:          0
L1I PREFETCH  ACCESS:    5979386  HIT:    4970575  MISS:    1008811
L1I WRITEBACK ACCESS:          0  HIT:          0  MISS:          0
L1I PREFETCH  REQUESTED:    6465497  ISSUED:    6343888  USEFUL:     728710  USELESS:     280132
L1I AVERAGE MISS LATENCY: 16.1049 cycles
L1I

SHEET
L1I-total_access : 15060602
L1I-total_hit : 13896767
L1I-total_miss : 1163835
L1I-load_access : 9081216
L1I-load_hit : 8926192
L1I-load_miss : 155024
L1I-rfo_access : 0
L1I-rfo_hit : 0
L1I-rfo_miss : 0
L1I-prefetch_access : 5979386
L1I-prefetch_hit : 4970575
L1I-prefetch_miss : 1008811
L1I-writeback_access : 0
L1I-writeback_hit : 0
L1I-writeback_miss : 0
L1I-prefetch_requested : 6465497
L1I-prefetch_issued : 6343888
L1I-prefetch_useful : 728710
L1I-prefetch_useless : 280132
L1I-Avg_miss_latency : 16.1049
L1I-Morteza_fill_l2_prefetches : 0

L2C TOTAL     ACCESS:    3373593  HIT:    3165305  MISS:     208288
L2C LOAD      ACCESS:     632719  HIT:     562154  MISS:      70565
L2C RFO       ACCESS:      89542  HIT:      47954  MISS:      41588
L2C PREFETCH  ACCESS:    2323620  HIT:    2227679  MISS:      95941
L2C WRITEBACK ACCESS:     327712  HIT:     327518  MISS:        194
L2C PREFETCH  REQUESTED:    2667359  ISSUED:    2658343  USEFUL:       9601  USELESS:      85531
L2C AVERAGE MISS LATENCY: 124.807 cycles
L2C

SHEET
L2C-total_access : 3373593
L2C-total_hit : 3165305
L2C-total_miss : 208288
L2C-load_access : 632719
L2C-load_hit : 562154
L2C-load_miss : 70565
L2C-rfo_access : 89542
L2C-rfo_hit : 47954
L2C-rfo_miss : 41588
L2C-prefetch_access : 2323620
L2C-prefetch_hit : 2227679
L2C-prefetch_miss : 95941
L2C-writeback_access : 327712
L2C-writeback_hit : 327518
L2C-writeback_miss : 194
L2C-prefetch_requested : 2667359
L2C-prefetch_issued : 2658343
L2C-prefetch_useful : 9601
L2C-prefetch_useless : 85531
L2C-Avg_miss_latency : 124.807
L2C-Morteza_fill_l2_prefetches : 726448

LLC TOTAL     ACCESS:    1021364  HIT:     852260  MISS:     169104
LLC LOAD      ACCESS:      70465  HIT:      35163  MISS:      35302
LLC RFO       ACCESS:      41586  HIT:       7140  MISS:      34446
LLC PREFETCH  ACCESS:     834729  HIT:     735692  MISS:      99037
LLC WRITEBACK ACCESS:      74584  HIT:      74265  MISS:        319
LLC PREFETCH  REQUESTED:          0  ISSUED:          0  USEFUL:      18891  USELESS:      79988
LLC AVERAGE MISS LATENCY: 182.414 cycles
LLC

SHEET
LLC-total_access : 1021364
LLC-total_hit : 852260
LLC-total_miss : 169104
LLC-load_access : 70465
LLC-load_hit : 35163
LLC-load_miss : 35302
LLC-rfo_access : 41586
LLC-rfo_hit : 7140
LLC-rfo_miss : 34446
LLC-prefetch_access : 834729
LLC-prefetch_hit : 735692
LLC-prefetch_miss : 99037
LLC-writeback_access : 74584
LLC-writeback_hit : 74265
LLC-writeback_miss : 319
LLC-prefetch_requested : 0
LLC-prefetch_issued : 0
LLC-prefetch_useful : 18891
LLC-prefetch_useless : 79988
LLC-Avg_miss_latency : 182.414
LLC-Morteza_fill_l2_prefetches : 683285

Major fault: 0 Minor fault: 4405



Printing Logs
statHeadFound: 590339
statHeadMissing: 1415028
statStreamBufferHit: 11666626
statPrefetchEntryFound: 4374521
statCompactorMatch: 12597472
statStreamTrackerLookup: 13671993
statRecord: 1074521
statGetPointer: 2005367
statEnqueuePrefetch: 12847826
statPrefetchQueueIsFull: 21147
StreamBufferHitRate: 0.853323
Regions' size: 4968
next_region_correct: 675594
next_region_wrong: 393941
next_region_correct_prediction: 0.631671
statStreamBufferLookups: 984383496
statL1iLookups: 102782608
statCompactorLookups: 492191748
morteza: start

SHEET
mana_table_access_counter : 5470171
hobp_table_access_counter : 16715212
sab_access_counter : 16041147
srq_access_counter : 12357224

morteza: end
CPU 0 L1D next line prefetcher final stats

DRAM Statistics
 CHANNEL 0
 RQ ROW_BUFFER_HIT:      35659  ROW_BUFFER_MISS:     133121
 DBUS_CONGESTED:      94599
 WQ ROW_BUFFER_HIT:      12959  ROW_BUFFER_MISS:      45614  FULL:          0

 AVG_CONGESTED_CYCLE: 5

CPU 0 Branch Prediction Accuracy: 98.8607% MPKI: 1.8623 Average ROB Occupancy at Mispredict: 110.803

Branch types
NOT_BRANCH: 41826773 83.6535%
BRANCH_DIRECT_JUMP: 735330 1.47066%
BRANCH_INDIRECT: 269194 0.538388%
BRANCH_CONDITIONAL: 5957947 11.9159%
BRANCH_DIRECT_CALL: 368758 0.737516%
BRANCH_INDIRECT_CALL: 226975 0.45395%
BRANCH_RETURN: 614696 1.22939%
BRANCH_OTHER: 0 0%

