Initialize SIGNATURE TABLE
ST_SET: 1
ST_WAY: 256
ST_TAG_BIT: 16
ST_TAG_MASK: ffff

Initialize PATTERN TABLE
PT_SET: 512
PT_WAY: 4
SIG_DELTA_BIT: 7
C_SIG_BIT: 4
C_DELTA_BIT: 4

Initialize PREFETCH FILTER
FILTER_SET: 1024
MANA initialize 
tds: 2 tdm: 2
size MANA SINGLE: 15.5 KB
size MANA NULTIPLE: 0 KB
size HOBPT: 0.703125 KB
size SRQ: 0.14502 KB
size SABs: 0.290039 KB
size prefetch queue: 0.453125 KB
total: 17.0913 KB

*** ChampSim Multicore Out-of-Order Simulator ***

Warmup Instructions: 50000000
Simulation Instructions: 50000000
Number of CPUs: 1
LLC sets: 2048
LLC ways: 16
Off-chip DRAM Size: 4096 MB Channels: 1 Width: 64-bit Data Rate: 3200 MT/s

CPU 0 runs /home/mbaradaran/ChampSim/dpc3_traces/server_018.champsimtrace.xz
CPU 0 L1D next line prefetcher
Heartbeat CPU 0 instructions: 10000003 cycles: 3619905 heartbeat IPC: 2.7625 cumulative IPC: 2.7625 (Simulation time: 0 hr 1 min 27 sec) 
Heartbeat CPU 0 instructions: 20000001 cycles: 7244661 heartbeat IPC: 2.75881 cumulative IPC: 2.76065 (Simulation time: 0 hr 2 min 59 sec) 
Heartbeat CPU 0 instructions: 30000003 cycles: 10722093 heartbeat IPC: 2.87569 cumulative IPC: 2.79796 (Simulation time: 0 hr 4 min 24 sec) 
Heartbeat CPU 0 instructions: 40000000 cycles: 14236379 heartbeat IPC: 2.84553 cumulative IPC: 2.8097 (Simulation time: 0 hr 5 min 54 sec) 
Heartbeat CPU 0 instructions: 50000003 cycles: 17856769 heartbeat IPC: 2.76213 cumulative IPC: 2.80006 (Simulation time: 0 hr 7 min 20 sec) 

Warmup complete CPU 0 instructions: 50000003 cycles: 17856769 (Simulation time: 0 hr 7 min 20 sec) 

Heartbeat CPU 0 instructions: 60000000 cycles: 35289061 heartbeat IPC: 0.573648 cumulative IPC: 0.573648 (Simulation time: 0 hr 9 min 28 sec) 
Heartbeat CPU 0 instructions: 70000001 cycles: 52833363 heartbeat IPC: 0.569986 cumulative IPC: 0.571811 (Simulation time: 0 hr 11 min 36 sec) 
Heartbeat CPU 0 instructions: 80000000 cycles: 70252406 heartbeat IPC: 0.574084 cumulative IPC: 0.572567 (Simulation time: 0 hr 13 min 33 sec) 
Heartbeat CPU 0 instructions: 90000002 cycles: 87722875 heartbeat IPC: 0.572395 cumulative IPC: 0.572524 (Simulation time: 0 hr 15 min 38 sec) 
Heartbeat CPU 0 instructions: 100000001 cycles: 105192921 heartbeat IPC: 0.572408 cumulative IPC: 0.572501 (Simulation time: 0 hr 17 min 42 sec) 
Finished CPU 0 instructions: 50000002 cycles: 87336153 cumulative IPC: 0.572501 (Simulation time: 0 hr 17 min 42 sec) 

ChampSim completed all CPUs

Region of Interest Statistics

CPU 0 cumulative IPC: 0.572501 instructions: 50000002 cycles: 87336153

SHEET
IPC : 0.572501

L1D TOTAL     ACCESS:   18656613  HIT:   16438839  MISS:    2217774
L1D LOAD      ACCESS:    7061423  HIT:    6337414  MISS:     724009
L1D RFO       ACCESS:    5804155  HIT:    4851801  MISS:     952354
L1D PREFETCH  ACCESS:    5791035  HIT:    5249624  MISS:     541411
L1D WRITEBACK ACCESS:          0  HIT:          0  MISS:          0
L1D PREFETCH  REQUESTED:    7103066  ISSUED:    6899668  USEFUL:     201646  USELESS:     339854
L1D AVERAGE MISS LATENCY: 174.159 cycles
L1D

SHEET
L1D-total_access : 18656613
L1D-total_hit : 16438839
L1D-total_miss : 2217774
L1D-load_access : 7061423
L1D-load_hit : 6337414
L1D-load_miss : 724009
L1D-rfo_access : 5804155
L1D-rfo_hit : 4851801
L1D-rfo_miss : 952354
L1D-prefetch_access : 5791035
L1D-prefetch_hit : 5249624
L1D-prefetch_miss : 541411
L1D-writeback_access : 0
L1D-writeback_hit : 0
L1D-writeback_miss : 0
L1D-prefetch_requested : 7103066
L1D-prefetch_issued : 6899668
L1D-prefetch_useful : 201646
L1D-prefetch_useless : 339854
L1D-Avg_miss_latency : 174.159
L1D-Morteza_fill_l2_prefetches : 0

L1I TOTAL     ACCESS:   17218583  HIT:   14476633  MISS:    2741950
L1I LOAD      ACCESS:   10051577  HIT:    9764929  MISS:     286648
L1I RFO       ACCESS:          0  HIT:          0  MISS:          0
L1I PREFETCH  ACCESS:    7167006  HIT:    4711704  MISS:    2455302
L1I WRITEBACK ACCESS:          0  HIT:          0  MISS:          0
L1I PREFETCH  REQUESTED:    7602100  ISSUED:    7463545  USEFUL:    2023426  USELESS:     431913
L1I AVERAGE MISS LATENCY: 17.2873 cycles
L1I

SHEET
L1I-total_access : 17218583
L1I-total_hit : 14476633
L1I-total_miss : 2741950
L1I-load_access : 10051577
L1I-load_hit : 9764929
L1I-load_miss : 286648
L1I-rfo_access : 0
L1I-rfo_hit : 0
L1I-rfo_miss : 0
L1I-prefetch_access : 7167006
L1I-prefetch_hit : 4711704
L1I-prefetch_miss : 2455302
L1I-writeback_access : 0
L1I-writeback_hit : 0
L1I-writeback_miss : 0
L1I-prefetch_requested : 7602100
L1I-prefetch_issued : 7463545
L1I-prefetch_useful : 2023426
L1I-prefetch_useless : 431913
L1I-Avg_miss_latency : 17.2873
L1I-Morteza_fill_l2_prefetches : 0

L2C TOTAL     ACCESS:    7290152  HIT:    5433047  MISS:    1857105
L2C LOAD      ACCESS:     697673  HIT:     426360  MISS:     271313
L2C RFO       ACCESS:     951742  HIT:      20201  MISS:     931541
L2C PREFETCH  ACCESS:    4470693  HIT:    3818913  MISS:     651780
L2C WRITEBACK ACCESS:    1170044  HIT:    1167573  MISS:       2471
L2C PREFETCH  REQUESTED:    4467644  ISSUED:    4461245  USEFUL:      28013  USELESS:     624680
L2C AVERAGE MISS LATENCY: 212.125 cycles
L2C

SHEET
L2C-total_access : 7290152
L2C-total_hit : 5433047
L2C-total_miss : 1857105
L2C-load_access : 697673
L2C-load_hit : 426360
L2C-load_miss : 271313
L2C-rfo_access : 951742
L2C-rfo_hit : 20201
L2C-rfo_miss : 931541
L2C-prefetch_access : 4470693
L2C-prefetch_hit : 3818913
L2C-prefetch_miss : 651780
L2C-writeback_access : 1170044
L2C-writeback_hit : 1167573
L2C-writeback_miss : 2471
L2C-prefetch_requested : 4467644
L2C-prefetch_issued : 4461245
L2C-prefetch_useful : 28013
L2C-prefetch_useless : 624680
L2C-Avg_miss_latency : 212.125
L2C-Morteza_fill_l2_prefetches : 1176530

LLC TOTAL     ACCESS:    4176313  HIT:    2723438  MISS:    1452875
LLC LOAD      ACCESS:     271161  HIT:     170698  MISS:     100463
LLC RFO       ACCESS:     931540  HIT:     137534  MISS:     794006
LLC PREFETCH  ACCESS:    1873111  HIT:    1316727  MISS:     556384
LLC WRITEBACK ACCESS:    1100501  HIT:    1098479  MISS:       2022
LLC PREFETCH  REQUESTED:          0  ISSUED:          0  USEFUL:      30186  USELESS:     526300
LLC AVERAGE MISS LATENCY: 278.173 cycles
LLC

SHEET
LLC-total_access : 4176313
LLC-total_hit : 2723438
LLC-total_miss : 1452875
LLC-load_access : 271161
LLC-load_hit : 170698
LLC-load_miss : 100463
LLC-rfo_access : 931540
LLC-rfo_hit : 137534
LLC-rfo_miss : 794006
LLC-prefetch_access : 1873111
LLC-prefetch_hit : 1316727
LLC-prefetch_miss : 556384
LLC-writeback_access : 1100501
LLC-writeback_hit : 1098479
LLC-writeback_miss : 2022
LLC-prefetch_requested : 0
LLC-prefetch_issued : 0
LLC-prefetch_useful : 30186
LLC-prefetch_useless : 526300
LLC-Avg_miss_latency : 278.173
LLC-Morteza_fill_l2_prefetches : 983302

Major fault: 0 Minor fault: 22442



Printing Logs
statHeadFound: 465602
statHeadMissing: 1132447
statStreamBufferHit: 11596718
statPrefetchEntryFound: 4492463
statCompactorMatch: 10967142
statStreamTrackerLookup: 13194767
statRecord: 2227625
statGetPointer: 1598049
statEnqueuePrefetch: 14096329
statPrefetchQueueIsFull: 187
StreamBufferHitRate: 0.878888
Regions' size: 1301
next_region_correct: 1885509
next_region_wrong: 340797
next_region_correct_prediction: 0.846923
statStreamBufferLookups: 950023224
statL1iLookups: 112770632
statCompactorLookups: 475011612
morteza: start

SHEET
mana_table_access_counter : 6720257
hobp_table_access_counter : 19795307
sab_access_counter : 16089181
srq_access_counter : 14336788

morteza: end
CPU 0 L1D next line prefetcher final stats

DRAM Statistics
 CHANNEL 0
 RQ ROW_BUFFER_HIT:     433133  ROW_BUFFER_MISS:    1017479
 DBUS_CONGESTED:    1436871
 WQ ROW_BUFFER_HIT:     261843  ROW_BUFFER_MISS:     633205  FULL:          0

 AVG_CONGESTED_CYCLE: 6

CPU 0 Branch Prediction Accuracy: 99.7114% MPKI: 0.47678 Average ROB Occupancy at Mispredict: 209.921

Branch types
NOT_BRANCH: 41741008 83.482%
BRANCH_DIRECT_JUMP: 458652 0.917304%
BRANCH_INDIRECT: 48282 0.096564%
BRANCH_CONDITIONAL: 5930881 11.8618%
BRANCH_DIRECT_CALL: 744230 1.48846%
BRANCH_INDIRECT_CALL: 166336 0.332672%
BRANCH_RETURN: 910589 1.82118%
BRANCH_OTHER: 0 0%

