Initialize SIGNATURE TABLE
ST_SET: 1
ST_WAY: 256
ST_TAG_BIT: 16
ST_TAG_MASK: ffff

Initialize PATTERN TABLE
PT_SET: 512
PT_WAY: 4
SIG_DELTA_BIT: 7
C_SIG_BIT: 4
C_DELTA_BIT: 4

Initialize PREFETCH FILTER
FILTER_SET: 1024
MANA initialize 
tds: 2 tdm: 2
size MANA SINGLE: 15.5 KB
size MANA NULTIPLE: 0 KB
size HOBPT: 0.703125 KB
size SRQ: 0.14502 KB
size SABs: 0.290039 KB
size prefetch queue: 0.453125 KB
total: 17.0913 KB

*** ChampSim Multicore Out-of-Order Simulator ***

Warmup Instructions: 50000000
Simulation Instructions: 50000000
Number of CPUs: 1
LLC sets: 2048
LLC ways: 16
Off-chip DRAM Size: 4096 MB Channels: 1 Width: 64-bit Data Rate: 3200 MT/s

CPU 0 runs /home/mbaradaran/ChampSim/dpc3_traces/server_004.champsimtrace.xz
CPU 0 L1D next line prefetcher
Heartbeat CPU 0 instructions: 10000002 cycles: 3236001 heartbeat IPC: 3.09023 cumulative IPC: 3.09023 (Simulation time: 0 hr 1 min 22 sec) 
Heartbeat CPU 0 instructions: 20000002 cycles: 6575715 heartbeat IPC: 2.99427 cumulative IPC: 3.04149 (Simulation time: 0 hr 2 min 42 sec) 
Heartbeat CPU 0 instructions: 30000000 cycles: 11693840 heartbeat IPC: 1.95384 cumulative IPC: 2.56545 (Simulation time: 0 hr 4 min 26 sec) 
Heartbeat CPU 0 instructions: 40000003 cycles: 15447441 heartbeat IPC: 2.66411 cumulative IPC: 2.58943 (Simulation time: 0 hr 5 min 53 sec) 
Heartbeat CPU 0 instructions: 50000003 cycles: 18682760 heartbeat IPC: 3.09089 cumulative IPC: 2.67626 (Simulation time: 0 hr 7 min 21 sec) 

Warmup complete CPU 0 instructions: 50000003 cycles: 18682760 (Simulation time: 0 hr 7 min 21 sec) 

Heartbeat CPU 0 instructions: 60000002 cycles: 27997149 heartbeat IPC: 1.07361 cumulative IPC: 1.07361 (Simulation time: 0 hr 8 min 40 sec) 
Heartbeat CPU 0 instructions: 70000000 cycles: 36780221 heartbeat IPC: 1.13855 cumulative IPC: 1.10513 (Simulation time: 0 hr 9 min 58 sec) 
Heartbeat CPU 0 instructions: 80000001 cycles: 57949489 heartbeat IPC: 0.472383 cumulative IPC: 0.764006 (Simulation time: 0 hr 12 min 3 sec) 
Heartbeat CPU 0 instructions: 90000003 cycles: 73421268 heartbeat IPC: 0.646338 cumulative IPC: 0.730747 (Simulation time: 0 hr 13 min 32 sec) 
Heartbeat CPU 0 instructions: 100000003 cycles: 82900926 heartbeat IPC: 1.05489 cumulative IPC: 0.778596 (Simulation time: 0 hr 14 min 45 sec) 
Finished CPU 0 instructions: 50000000 cycles: 64218166 cumulative IPC: 0.778596 (Simulation time: 0 hr 14 min 45 sec) 

ChampSim completed all CPUs

Region of Interest Statistics

CPU 0 cumulative IPC: 0.778596 instructions: 50000000 cycles: 64218166

SHEET
IPC : 0.778596

L1D TOTAL     ACCESS:   21837181  HIT:   17765871  MISS:    4071310
L1D LOAD      ACCESS:    8697539  HIT:    6681113  MISS:    2016426
L1D RFO       ACCESS:    4650111  HIT:    4543206  MISS:     106905
L1D PREFETCH  ACCESS:    8489531  HIT:    6541552  MISS:    1947979
L1D WRITEBACK ACCESS:          0  HIT:          0  MISS:          0
L1D PREFETCH  REQUESTED:    8733840  ISSUED:    8643254  USEFUL:     108222  USELESS:    1839747
L1D AVERAGE MISS LATENCY: 22.9165 cycles
L1D

SHEET
L1D-total_access : 21837181
L1D-total_hit : 17765871
L1D-total_miss : 4071310
L1D-load_access : 8697539
L1D-load_hit : 6681113
L1D-load_miss : 2016426
L1D-rfo_access : 4650111
L1D-rfo_hit : 4543206
L1D-rfo_miss : 106905
L1D-prefetch_access : 8489531
L1D-prefetch_hit : 6541552
L1D-prefetch_miss : 1947979
L1D-writeback_access : 0
L1D-writeback_hit : 0
L1D-writeback_miss : 0
L1D-prefetch_requested : 8733840
L1D-prefetch_issued : 8643254
L1D-prefetch_useful : 108222
L1D-prefetch_useless : 1839747
L1D-Avg_miss_latency : 22.9165
L1D-Morteza_fill_l2_prefetches : 0

L1I TOTAL     ACCESS:   17601202  HIT:   15551101  MISS:    2050101
L1I LOAD      ACCESS:   10675077  HIT:   10314946  MISS:     360131
L1I RFO       ACCESS:          0  HIT:          0  MISS:          0
L1I PREFETCH  ACCESS:    6926125  HIT:    5236155  MISS:    1689970
L1I WRITEBACK ACCESS:          0  HIT:          0  MISS:          0
L1I PREFETCH  REQUESTED:    7637089  ISSUED:    7247054  USEFUL:     870515  USELESS:     819461
L1I AVERAGE MISS LATENCY: 28.5494 cycles
L1I

SHEET
L1I-total_access : 17601202
L1I-total_hit : 15551101
L1I-total_miss : 2050101
L1I-load_access : 10675077
L1I-load_hit : 10314946
L1I-load_miss : 360131
L1I-rfo_access : 0
L1I-rfo_hit : 0
L1I-rfo_miss : 0
L1I-prefetch_access : 6926125
L1I-prefetch_hit : 5236155
L1I-prefetch_miss : 1689970
L1I-writeback_access : 0
L1I-writeback_hit : 0
L1I-writeback_miss : 0
L1I-prefetch_requested : 7637089
L1I-prefetch_issued : 7247054
L1I-prefetch_useful : 870515
L1I-prefetch_useless : 819461
L1I-Avg_miss_latency : 28.5494
L1I-Morteza_fill_l2_prefetches : 0

L2C TOTAL     ACCESS:    7792306  HIT:    6698554  MISS:    1093752
L2C LOAD      ACCESS:    2288257  HIT:    1925773  MISS:     362484
L2C RFO       ACCESS:     105618  HIT:      55869  MISS:      49749
L2C PREFETCH  ACCESS:    5153404  HIT:    4474059  MISS:     679345
L2C WRITEBACK ACCESS:     245027  HIT:     242853  MISS:       2174
L2C PREFETCH  REQUESTED:    7380390  ISSUED:    7376479  USEFUL:      52015  USELESS:     626316
L2C AVERAGE MISS LATENCY: 55.0684 cycles
L2C

SHEET
L2C-total_access : 7792306
L2C-total_hit : 6698554
L2C-total_miss : 1093752
L2C-load_access : 2288257
L2C-load_hit : 1925773
L2C-load_miss : 362484
L2C-rfo_access : 105618
L2C-rfo_hit : 55869
L2C-rfo_miss : 49749
L2C-prefetch_access : 5153404
L2C-prefetch_hit : 4474059
L2C-prefetch_miss : 679345
L2C-writeback_access : 245027
L2C-writeback_hit : 242853
L2C-writeback_miss : 2174
L2C-prefetch_requested : 7380390
L2C-prefetch_issued : 7376479
L2C-prefetch_useful : 52015
L2C-prefetch_useless : 626316
L2C-Avg_miss_latency : 55.0684
L2C-Morteza_fill_l2_prefetches : 1436330

LLC TOTAL     ACCESS:    2705783  HIT:    2476485  MISS:     229298
LLC LOAD      ACCESS:     360707  HIT:     307050  MISS:      53657
LLC RFO       ACCESS:      49741  HIT:      34114  MISS:      15627
LLC PREFETCH  ACCESS:    2151923  HIT:    1992143  MISS:     159780
LLC WRITEBACK ACCESS:     143412  HIT:     143178  MISS:        234
LLC PREFETCH  REQUESTED:          0  ISSUED:          0  USEFUL:      26078  USELESS:     132804
LLC AVERAGE MISS LATENCY: 168.954 cycles
LLC

SHEET
LLC-total_access : 2705783
LLC-total_hit : 2476485
LLC-total_miss : 229298
LLC-load_access : 360707
LLC-load_hit : 307050
LLC-load_miss : 53657
LLC-rfo_access : 49741
LLC-rfo_hit : 34114
LLC-rfo_miss : 15627
LLC-prefetch_access : 2151923
LLC-prefetch_hit : 1992143
LLC-prefetch_miss : 159780
LLC-writeback_access : 143412
LLC-writeback_hit : 143178
LLC-writeback_miss : 234
LLC-prefetch_requested : 0
LLC-prefetch_issued : 0
LLC-prefetch_useful : 26078
LLC-prefetch_useless : 132804
LLC-Avg_miss_latency : 168.954
LLC-Morteza_fill_l2_prefetches : 1426606

Major fault: 0 Minor fault: 7592



Printing Logs
statHeadFound: 535109
statHeadMissing: 1522887
statStreamBufferHit: 13287555
statPrefetchEntryFound: 4501906
statCompactorMatch: 13484156
statStreamTrackerLookup: 15345551
statRecord: 1861395
statGetPointer: 2057996
statEnqueuePrefetch: 14267482
statPrefetchQueueIsFull: 66211
StreamBufferHitRate: 0.86589
Regions' size: 8603
next_region_correct: 1518092
next_region_wrong: 334682
next_region_correct_prediction: 0.819362
statStreamBufferLookups: 1104879672
statL1iLookups: 114139856
statCompactorLookups: 552439836
morteza: start

SHEET
mana_table_access_counter : 6429494
hobp_table_access_counter : 20245696
sab_access_counter : 17789461
srq_access_counter : 14067645

morteza: end
CPU 0 L1D next line prefetcher final stats

DRAM Statistics
 CHANNEL 0
 RQ ROW_BUFFER_HIT:      46825  ROW_BUFFER_MISS:     182217
 DBUS_CONGESTED:      94337
 WQ ROW_BUFFER_HIT:      11528  ROW_BUFFER_MISS:      43730  FULL:          0

 AVG_CONGESTED_CYCLE: 5

CPU 0 Branch Prediction Accuracy: 98.1603% MPKI: 3.89124 Average ROB Occupancy at Mispredict: 59.3133

Branch types
NOT_BRANCH: 39423766 78.8475%
BRANCH_DIRECT_JUMP: 551642 1.10328%
BRANCH_INDIRECT: 139368 0.278736%
BRANCH_CONDITIONAL: 7920861 15.8417%
BRANCH_DIRECT_CALL: 776072 1.55214%
BRANCH_INDIRECT_CALL: 194644 0.389288%
BRANCH_RETURN: 993311 1.98662%
BRANCH_OTHER: 0 0%

