Initialize SIGNATURE TABLE
ST_SET: 1
ST_WAY: 256
ST_TAG_BIT: 16
ST_TAG_MASK: ffff

Initialize PATTERN TABLE
PT_SET: 512
PT_WAY: 4
SIG_DELTA_BIT: 7
C_SIG_BIT: 4
C_DELTA_BIT: 4

Initialize PREFETCH FILTER
FILTER_SET: 1024
MANA initialize 
tds: 2 tdm: 2
size MANA SINGLE: 15.5 KB
size MANA NULTIPLE: 0 KB
size HOBPT: 0.703125 KB
size SRQ: 0.14502 KB
size SABs: 0.290039 KB
size prefetch queue: 0.453125 KB
total: 17.0913 KB

*** ChampSim Multicore Out-of-Order Simulator ***

Warmup Instructions: 50000000
Simulation Instructions: 50000000
Number of CPUs: 1
LLC sets: 2048
LLC ways: 16
Off-chip DRAM Size: 4096 MB Channels: 1 Width: 64-bit Data Rate: 3200 MT/s

CPU 0 runs /home/mbaradaran/ChampSim/dpc3_traces/server_024.champsimtrace.xz
CPU 0 L1D next line prefetcher
Heartbeat CPU 0 instructions: 10000000 cycles: 3509842 heartbeat IPC: 2.84913 cumulative IPC: 2.84913 (Simulation time: 0 hr 1 min 23 sec) 
Heartbeat CPU 0 instructions: 20000002 cycles: 7012220 heartbeat IPC: 2.8552 cumulative IPC: 2.85216 (Simulation time: 0 hr 2 min 43 sec) 
Heartbeat CPU 0 instructions: 30000000 cycles: 10525613 heartbeat IPC: 2.84625 cumulative IPC: 2.85019 (Simulation time: 0 hr 4 min 5 sec) 
Heartbeat CPU 0 instructions: 40000000 cycles: 14035914 heartbeat IPC: 2.84876 cumulative IPC: 2.84983 (Simulation time: 0 hr 5 min 26 sec) 
Heartbeat CPU 0 instructions: 50000001 cycles: 17535984 heartbeat IPC: 2.85709 cumulative IPC: 2.85128 (Simulation time: 0 hr 6 min 48 sec) 

Warmup complete CPU 0 instructions: 50000001 cycles: 17535984 (Simulation time: 0 hr 6 min 48 sec) 

Heartbeat CPU 0 instructions: 60000003 cycles: 24769764 heartbeat IPC: 1.3824 cumulative IPC: 1.3824 (Simulation time: 0 hr 8 min 10 sec) 
Heartbeat CPU 0 instructions: 70000000 cycles: 32025514 heartbeat IPC: 1.37822 cumulative IPC: 1.38031 (Simulation time: 0 hr 9 min 40 sec) 
*** Reached end of trace for Core: 0 Repeating trace: /home/mbaradaran/ChampSim/dpc3_traces/server_024.champsimtrace.xz
Heartbeat CPU 0 instructions: 80000003 cycles: 39240012 heartbeat IPC: 1.3861 cumulative IPC: 1.38223 (Simulation time: 0 hr 11 min 3 sec) 
Heartbeat CPU 0 instructions: 90000003 cycles: 46522576 heartbeat IPC: 1.37314 cumulative IPC: 1.37995 (Simulation time: 0 hr 12 min 23 sec) 
Heartbeat CPU 0 instructions: 100000002 cycles: 53767075 heartbeat IPC: 1.38036 cumulative IPC: 1.38003 (Simulation time: 0 hr 13 min 44 sec) 
Finished CPU 0 instructions: 50000001 cycles: 36231091 cumulative IPC: 1.38003 (Simulation time: 0 hr 13 min 44 sec) 

ChampSim completed all CPUs

Region of Interest Statistics

CPU 0 cumulative IPC: 1.38003 instructions: 50000001 cycles: 36231091

SHEET
IPC : 1.38003

L1D TOTAL     ACCESS:   20194952  HIT:   18677115  MISS:    1517837
L1D LOAD      ACCESS:    7180625  HIT:    6500699  MISS:     679926
L1D RFO       ACCESS:    6160878  HIT:    5886835  MISS:     274043
L1D PREFETCH  ACCESS:    6853449  HIT:    6289581  MISS:     563868
L1D WRITEBACK ACCESS:          0  HIT:          0  MISS:          0
L1D PREFETCH  REQUESTED:    7234625  ISSUED:    7116427  USEFUL:     136448  USELESS:     427424
L1D AVERAGE MISS LATENCY: 24.9655 cycles
L1D

SHEET
L1D-total_access : 20194952
L1D-total_hit : 18677115
L1D-total_miss : 1517837
L1D-load_access : 7180625
L1D-load_hit : 6500699
L1D-load_miss : 679926
L1D-rfo_access : 6160878
L1D-rfo_hit : 5886835
L1D-rfo_miss : 274043
L1D-prefetch_access : 6853449
L1D-prefetch_hit : 6289581
L1D-prefetch_miss : 563868
L1D-writeback_access : 0
L1D-writeback_hit : 0
L1D-writeback_miss : 0
L1D-prefetch_requested : 7234625
L1D-prefetch_issued : 7116427
L1D-prefetch_useful : 136448
L1D-prefetch_useless : 427424
L1D-Avg_miss_latency : 24.9655
L1D-Morteza_fill_l2_prefetches : 0

L1I TOTAL     ACCESS:   18722425  HIT:   14385773  MISS:    4336652
L1I LOAD      ACCESS:    9143713  HIT:    8369580  MISS:     774133
L1I RFO       ACCESS:          0  HIT:          0  MISS:          0
L1I PREFETCH  ACCESS:    9578712  HIT:    6016193  MISS:    3562519
L1I WRITEBACK ACCESS:          0  HIT:          0  MISS:          0
L1I PREFETCH  REQUESTED:   10621523  ISSUED:   10377021  USEFUL:    1955570  USELESS:    1606943
L1I AVERAGE MISS LATENCY: 16.3107 cycles
L1I

SHEET
L1I-total_access : 18722425
L1I-total_hit : 14385773
L1I-total_miss : 4336652
L1I-load_access : 9143713
L1I-load_hit : 8369580
L1I-load_miss : 774133
L1I-rfo_access : 0
L1I-rfo_hit : 0
L1I-rfo_miss : 0
L1I-prefetch_access : 9578712
L1I-prefetch_hit : 6016193
L1I-prefetch_miss : 3562519
L1I-writeback_access : 0
L1I-writeback_hit : 0
L1I-writeback_miss : 0
L1I-prefetch_requested : 10621523
L1I-prefetch_issued : 10377021
L1I-prefetch_useful : 1955570
L1I-prefetch_useless : 1606943
L1I-Avg_miss_latency : 16.3107
L1I-Morteza_fill_l2_prefetches : 0

L2C TOTAL     ACCESS:    7877042  HIT:    7230828  MISS:     646214
L2C LOAD      ACCESS:    1211058  HIT:    1028832  MISS:     182226
L2C RFO       ACCESS:     272240  HIT:     187192  MISS:      85048
L2C PREFETCH  ACCESS:    5873542  HIT:    5498045  MISS:     375497
L2C WRITEBACK ACCESS:     520202  HIT:     516759  MISS:       3443
L2C PREFETCH  REQUESTED:    6267532  ISSUED:    6258863  USEFUL:      32360  USELESS:     341983
L2C AVERAGE MISS LATENCY: 44.6798 cycles
L2C

SHEET
L2C-total_access : 7877042
L2C-total_hit : 7230828
L2C-total_miss : 646214
L2C-load_access : 1211058
L2C-load_hit : 1028832
L2C-load_miss : 182226
L2C-rfo_access : 272240
L2C-rfo_hit : 187192
L2C-rfo_miss : 85048
L2C-prefetch_access : 5873542
L2C-prefetch_hit : 5498045
L2C-prefetch_miss : 375497
L2C-writeback_access : 520202
L2C-writeback_hit : 516759
L2C-writeback_miss : 3443
L2C-prefetch_requested : 6267532
L2C-prefetch_issued : 6258863
L2C-prefetch_useful : 32360
L2C-prefetch_useless : 341983
L2C-Avg_miss_latency : 44.6798
L2C-Morteza_fill_l2_prefetches : 1544306

LLC TOTAL     ACCESS:    2351916  HIT:    2302156  MISS:      49760
LLC LOAD      ACCESS:     181987  HIT:     176508  MISS:       5479
LLC RFO       ACCESS:      85048  HIT:      62916  MISS:      22132
LLC PREFETCH  ACCESS:    1946839  HIT:    1924957  MISS:      21882
LLC WRITEBACK ACCESS:     138042  HIT:     137775  MISS:        267
LLC PREFETCH  REQUESTED:          0  ISSUED:          0  USEFUL:       2128  USELESS:      19578
LLC AVERAGE MISS LATENCY: 200.087 cycles
LLC

SHEET
LLC-total_access : 2351916
LLC-total_hit : 2302156
LLC-total_miss : 49760
LLC-load_access : 181987
LLC-load_hit : 176508
LLC-load_miss : 5479
LLC-rfo_access : 85048
LLC-rfo_hit : 62916
LLC-rfo_miss : 22132
LLC-prefetch_access : 1946839
LLC-prefetch_hit : 1924957
LLC-prefetch_miss : 21882
LLC-writeback_access : 138042
LLC-writeback_hit : 137775
LLC-writeback_miss : 267
LLC-prefetch_requested : 0
LLC-prefetch_issued : 0
LLC-prefetch_useful : 2128
LLC-prefetch_useless : 19578
LLC-Avg_miss_latency : 200.087
LLC-Morteza_fill_l2_prefetches : 1579541

Major fault: 0 Minor fault: 2362



Printing Logs
statHeadFound: 985656
statHeadMissing: 1207841
statStreamBufferHit: 11907451
statPrefetchEntryFound: 6858849
statCompactorMatch: 11755234
statStreamTrackerLookup: 14100948
statRecord: 2345714
statGetPointer: 2193497
statEnqueuePrefetch: 20710536
statPrefetchQueueIsFull: 52530
StreamBufferHitRate: 0.844443
Regions' size: 2172
next_region_correct: 1579717
next_region_wrong: 763807
next_region_correct_prediction: 0.674078
statStreamBufferLookups: 1015268256
statL1iLookups: 165684288
statCompactorLookups: 507634128
morteza: start

SHEET
mana_table_access_counter : 9257075
hobp_table_access_counter : 25068223
sab_access_counter : 18766300
srq_access_counter : 15102315

morteza: end
CPU 0 L1D next line prefetcher final stats

DRAM Statistics
 CHANNEL 0
 RQ ROW_BUFFER_HIT:      17289  ROW_BUFFER_MISS:      32201
 DBUS_CONGESTED:      37796
 WQ ROW_BUFFER_HIT:       2693  ROW_BUFFER_MISS:      22949  FULL:          0

 AVG_CONGESTED_CYCLE: 6

CPU 0 Branch Prediction Accuracy: 99.7477% MPKI: 0.46156 Average ROB Occupancy at Mispredict: 145.848

Branch types
NOT_BRANCH: 40853597 81.7072%
BRANCH_DIRECT_JUMP: 566815 1.13363%
BRANCH_INDIRECT: 197171 0.394342%
BRANCH_CONDITIONAL: 6308407 12.6168%
BRANCH_DIRECT_CALL: 876399 1.7528%
BRANCH_INDIRECT_CALL: 160491 0.320982%
BRANCH_RETURN: 1036885 2.07377%
BRANCH_OTHER: 0 0%

