Initialize SIGNATURE TABLE
ST_SET: 1
ST_WAY: 256
ST_TAG_BIT: 16
ST_TAG_MASK: ffff

Initialize PATTERN TABLE
PT_SET: 512
PT_WAY: 4
SIG_DELTA_BIT: 7
C_SIG_BIT: 4
C_DELTA_BIT: 4

Initialize PREFETCH FILTER
FILTER_SET: 1024
MANA initialize 
tds: 2 tdm: 2
size MANA SINGLE: 15.5 KB
size MANA NULTIPLE: 0 KB
size HOBPT: 0.703125 KB
size SRQ: 0.14502 KB
size SABs: 0.290039 KB
size prefetch queue: 0.453125 KB
total: 17.0913 KB

*** ChampSim Multicore Out-of-Order Simulator ***

Warmup Instructions: 50000000
Simulation Instructions: 50000000
Number of CPUs: 1
LLC sets: 2048
LLC ways: 16
Off-chip DRAM Size: 4096 MB Channels: 1 Width: 64-bit Data Rate: 3200 MT/s

CPU 0 runs /home/mbaradaran/ChampSim/dpc3_traces/server_009.champsimtrace.xz
CPU 0 L1D next line prefetcher
Heartbeat CPU 0 instructions: 10000003 cycles: 3203875 heartbeat IPC: 3.12122 cumulative IPC: 3.12122 (Simulation time: 0 hr 1 min 31 sec) 
Heartbeat CPU 0 instructions: 20000001 cycles: 6401217 heartbeat IPC: 3.1276 cumulative IPC: 3.12441 (Simulation time: 0 hr 2 min 53 sec) 
Heartbeat CPU 0 instructions: 30000001 cycles: 9614129 heartbeat IPC: 3.11244 cumulative IPC: 3.12041 (Simulation time: 0 hr 4 min 14 sec) 
Heartbeat CPU 0 instructions: 40000003 cycles: 12823817 heartbeat IPC: 3.11557 cumulative IPC: 3.1192 (Simulation time: 0 hr 5 min 38 sec) 
Heartbeat CPU 0 instructions: 50000000 cycles: 16089060 heartbeat IPC: 3.06256 cumulative IPC: 3.1077 (Simulation time: 0 hr 7 min 2 sec) 

Warmup complete CPU 0 instructions: 50000004 cycles: 16089061 (Simulation time: 0 hr 7 min 2 sec) 

Heartbeat CPU 0 instructions: 60000002 cycles: 32108513 heartbeat IPC: 0.624241 cumulative IPC: 0.624241 (Simulation time: 0 hr 8 min 43 sec) 
Heartbeat CPU 0 instructions: 70000003 cycles: 53342251 heartbeat IPC: 0.470949 cumulative IPC: 0.536867 (Simulation time: 0 hr 10 min 52 sec) 
Heartbeat CPU 0 instructions: 80000000 cycles: 60996367 heartbeat IPC: 1.30649 cumulative IPC: 0.668043 (Simulation time: 0 hr 12 min 6 sec) 
Heartbeat CPU 0 instructions: 90000001 cycles: 68772398 heartbeat IPC: 1.286 cumulative IPC: 0.759253 (Simulation time: 0 hr 13 min 19 sec) 
Heartbeat CPU 0 instructions: 100000003 cycles: 76462114 heartbeat IPC: 1.30044 cumulative IPC: 0.828184 (Simulation time: 0 hr 14 min 37 sec) 
Finished CPU 0 instructions: 50000003 cycles: 60373054 cumulative IPC: 0.828184 (Simulation time: 0 hr 14 min 37 sec) 

ChampSim completed all CPUs

Region of Interest Statistics

CPU 0 cumulative IPC: 0.828184 instructions: 50000003 cycles: 60373054

SHEET
IPC : 0.828184

L1D TOTAL     ACCESS:   21821337  HIT:   17241359  MISS:    4579978
L1D LOAD      ACCESS:    8721851  HIT:    6443284  MISS:    2278567
L1D RFO       ACCESS:    4588913  HIT:    4484328  MISS:     104585
L1D PREFETCH  ACCESS:    8510573  HIT:    6313747  MISS:    2196826
L1D WRITEBACK ACCESS:          0  HIT:          0  MISS:          0
L1D PREFETCH  REQUESTED:    8755575  ISSUED:    8657299  USEFUL:     108130  USELESS:    2088695
L1D AVERAGE MISS LATENCY: 20.2897 cycles
L1D

SHEET
L1D-total_access : 21821337
L1D-total_hit : 17241359
L1D-total_miss : 4579978
L1D-load_access : 8721851
L1D-load_hit : 6443284
L1D-load_miss : 2278567
L1D-rfo_access : 4588913
L1D-rfo_hit : 4484328
L1D-rfo_miss : 104585
L1D-prefetch_access : 8510573
L1D-prefetch_hit : 6313747
L1D-prefetch_miss : 2196826
L1D-writeback_access : 0
L1D-writeback_hit : 0
L1D-writeback_miss : 0
L1D-prefetch_requested : 8755575
L1D-prefetch_issued : 8657299
L1D-prefetch_useful : 108130
L1D-prefetch_useless : 2088695
L1D-Avg_miss_latency : 20.2897
L1D-Morteza_fill_l2_prefetches : 0

L1I TOTAL     ACCESS:   17493292  HIT:   15452558  MISS:    2040734
L1I LOAD      ACCESS:   10722577  HIT:   10399416  MISS:     323161
L1I RFO       ACCESS:          0  HIT:          0  MISS:          0
L1I PREFETCH  ACCESS:    6770715  HIT:    5053142  MISS:    1717573
L1I WRITEBACK ACCESS:          0  HIT:          0  MISS:          0
L1I PREFETCH  REQUESTED:    7460638  ISSUED:    7054891  USEFUL:     912518  USELESS:     805006
L1I AVERAGE MISS LATENCY: 26.2557 cycles
L1I

SHEET
L1I-total_access : 17493292
L1I-total_hit : 15452558
L1I-total_miss : 2040734
L1I-load_access : 10722577
L1I-load_hit : 10399416
L1I-load_miss : 323161
L1I-rfo_access : 0
L1I-rfo_hit : 0
L1I-rfo_miss : 0
L1I-prefetch_access : 6770715
L1I-prefetch_hit : 5053142
L1I-prefetch_miss : 1717573
L1I-writeback_access : 0
L1I-writeback_hit : 0
L1I-writeback_miss : 0
L1I-prefetch_requested : 7460638
L1I-prefetch_issued : 7054891
L1I-prefetch_useful : 912518
L1I-prefetch_useless : 805006
L1I-Avg_miss_latency : 26.2557
L1I-Morteza_fill_l2_prefetches : 0

L2C TOTAL     ACCESS:    8382413  HIT:    7328335  MISS:    1054078
L2C LOAD      ACCESS:    2508148  HIT:    2190534  MISS:     317614
L2C RFO       ACCESS:     103622  HIT:      63152  MISS:      40470
L2C PREFETCH  ACCESS:    5513762  HIT:    4819463  MISS:     694299
L2C WRITEBACK ACCESS:     256881  HIT:     255186  MISS:       1695
L2C PREFETCH  REQUESTED:    7728633  ISSUED:    7723142  USEFUL:      51289  USELESS:     641564
L2C AVERAGE MISS LATENCY: 45.5411 cycles
L2C

SHEET
L2C-total_access : 8382413
L2C-total_hit : 7328335
L2C-total_miss : 1054078
L2C-load_access : 2508148
L2C-load_hit : 2190534
L2C-load_miss : 317614
L2C-rfo_access : 103622
L2C-rfo_hit : 63152
L2C-rfo_miss : 40470
L2C-prefetch_access : 5513762
L2C-prefetch_hit : 4819463
L2C-prefetch_miss : 694299
L2C-writeback_access : 256881
L2C-writeback_hit : 255186
L2C-writeback_miss : 1695
L2C-prefetch_requested : 7728633
L2C-prefetch_issued : 7723142
L2C-prefetch_useful : 51289
L2C-prefetch_useless : 641564
L2C-Avg_miss_latency : 45.5411
L2C-Morteza_fill_l2_prefetches : 1516257

LLC TOTAL     ACCESS:    2567717  HIT:    2441209  MISS:     126508
LLC LOAD      ACCESS:     316726  HIT:     294213  MISS:      22513
LLC RFO       ACCESS:      40468  HIT:      31572  MISS:       8896
LLC PREFETCH  ACCESS:    2071315  HIT:    1976396  MISS:      94919
LLC WRITEBACK ACCESS:     139208  HIT:     139028  MISS:        180
LLC PREFETCH  REQUESTED:          0  ISSUED:          0  USEFUL:      12688  USELESS:      79738
LLC AVERAGE MISS LATENCY: 169.237 cycles
LLC

SHEET
LLC-total_access : 2567717
LLC-total_hit : 2441209
LLC-total_miss : 126508
LLC-load_access : 316726
LLC-load_hit : 294213
LLC-load_miss : 22513
LLC-rfo_access : 40468
LLC-rfo_hit : 31572
LLC-rfo_miss : 8896
LLC-prefetch_access : 2071315
LLC-prefetch_hit : 1976396
LLC-prefetch_miss : 94919
LLC-writeback_access : 139208
LLC-writeback_hit : 139028
LLC-writeback_miss : 180
LLC-prefetch_requested : 0
LLC-prefetch_issued : 0
LLC-prefetch_useful : 12688
LLC-prefetch_useless : 79738
LLC-Avg_miss_latency : 169.237
LLC-Morteza_fill_l2_prefetches : 1377495

Major fault: 0 Minor fault: 6351



Printing Logs
statHeadFound: 483970
statHeadMissing: 952539
statStreamBufferHit: 12159647
statPrefetchEntryFound: 4285993
statCompactorMatch: 11668127
statStreamTrackerLookup: 13596156
statRecord: 1928029
statGetPointer: 1436509
statEnqueuePrefetch: 14531979
statPrefetchQueueIsFull: 67575
StreamBufferHitRate: 0.894344
Regions' size: 4297
next_region_correct: 1610020
next_region_wrong: 313694
next_region_correct_prediction: 0.836933
statStreamBufferLookups: 978923232
statL1iLookups: 116255832
statCompactorLookups: 489461616
morteza: start

SHEET
mana_table_access_counter : 6281579
hobp_table_access_counter : 17811734
sab_access_counter : 16445640
srq_access_counter : 13203087

morteza: end
CPU 0 L1D next line prefetcher final stats

DRAM Statistics
 CHANNEL 0
 RQ ROW_BUFFER_HIT:      24416  ROW_BUFFER_MISS:     101902
 DBUS_CONGESTED:      56686
 WQ ROW_BUFFER_HIT:       8773  ROW_BUFFER_MISS:      38404  FULL:          0

 AVG_CONGESTED_CYCLE: 5

CPU 0 Branch Prediction Accuracy: 99.4713% MPKI: 1.11484 Average ROB Occupancy at Mispredict: 103.392

Branch types
NOT_BRANCH: 39456615 78.9132%
BRANCH_DIRECT_JUMP: 445350 0.8907%
BRANCH_INDIRECT: 131149 0.262298%
BRANCH_CONDITIONAL: 8130196 16.2604%
BRANCH_DIRECT_CALL: 732485 1.46497%
BRANCH_INDIRECT_CALL: 172369 0.344738%
BRANCH_RETURN: 931558 1.86312%
BRANCH_OTHER: 0 0%

