Initialize SIGNATURE TABLE
ST_SET: 1
ST_WAY: 256
ST_TAG_BIT: 16
ST_TAG_MASK: ffff

Initialize PATTERN TABLE
PT_SET: 512
PT_WAY: 4
SIG_DELTA_BIT: 7
C_SIG_BIT: 4
C_DELTA_BIT: 4

Initialize PREFETCH FILTER
FILTER_SET: 1024
MANA initialize 
tds: 2 tdm: 2
size MANA SINGLE: 15.5 KB
size MANA NULTIPLE: 0 KB
size HOBPT: 0.703125 KB
size SRQ: 0.14502 KB
size SABs: 0.290039 KB
size prefetch queue: 0.453125 KB
total: 17.0913 KB

*** ChampSim Multicore Out-of-Order Simulator ***

Warmup Instructions: 50000000
Simulation Instructions: 50000000
Number of CPUs: 1
LLC sets: 2048
LLC ways: 16
Off-chip DRAM Size: 4096 MB Channels: 1 Width: 64-bit Data Rate: 3200 MT/s

CPU 0 runs /home/mbaradaran/ChampSim/dpc3_traces/server_039.champsimtrace.xz
CPU 0 L1D next line prefetcher
Heartbeat CPU 0 instructions: 10000003 cycles: 3451963 heartbeat IPC: 2.8969 cumulative IPC: 2.8969 (Simulation time: 0 hr 1 min 27 sec) 
Heartbeat CPU 0 instructions: 20000002 cycles: 6896799 heartbeat IPC: 2.9029 cumulative IPC: 2.8999 (Simulation time: 0 hr 2 min 55 sec) 
Heartbeat CPU 0 instructions: 30000001 cycles: 10343512 heartbeat IPC: 2.90131 cumulative IPC: 2.90037 (Simulation time: 0 hr 4 min 28 sec) 
Heartbeat CPU 0 instructions: 40000002 cycles: 13785589 heartbeat IPC: 2.90522 cumulative IPC: 2.90158 (Simulation time: 0 hr 5 min 58 sec) 
Heartbeat CPU 0 instructions: 50000001 cycles: 17227016 heartbeat IPC: 2.90577 cumulative IPC: 2.90242 (Simulation time: 0 hr 7 min 22 sec) 

Warmup complete CPU 0 instructions: 50000001 cycles: 17227016 (Simulation time: 0 hr 7 min 22 sec) 

Heartbeat CPU 0 instructions: 60000000 cycles: 23404026 heartbeat IPC: 1.61891 cumulative IPC: 1.61891 (Simulation time: 0 hr 8 min 30 sec) 
Heartbeat CPU 0 instructions: 70000000 cycles: 29572078 heartbeat IPC: 1.62126 cumulative IPC: 1.62008 (Simulation time: 0 hr 9 min 38 sec) 
Heartbeat CPU 0 instructions: 80000000 cycles: 35763448 heartbeat IPC: 1.61515 cumulative IPC: 1.61843 (Simulation time: 0 hr 10 min 45 sec) 
Heartbeat CPU 0 instructions: 90000001 cycles: 41948693 heartbeat IPC: 1.61675 cumulative IPC: 1.61801 (Simulation time: 0 hr 11 min 50 sec) 
Heartbeat CPU 0 instructions: 100000002 cycles: 48138387 heartbeat IPC: 1.61559 cumulative IPC: 1.61753 (Simulation time: 0 hr 12 min 55 sec) 
Finished CPU 0 instructions: 50000001 cycles: 30911371 cumulative IPC: 1.61753 (Simulation time: 0 hr 12 min 55 sec) 

ChampSim completed all CPUs

Region of Interest Statistics

CPU 0 cumulative IPC: 1.61753 instructions: 50000001 cycles: 30911371

SHEET
IPC : 1.61753

L1D TOTAL     ACCESS:   20473572  HIT:   19978896  MISS:     494676
L1D LOAD      ACCESS:    6770824  HIT:    6549035  MISS:     221789
L1D RFO       ACCESS:    7101723  HIT:    7034319  MISS:      67404
L1D PREFETCH  ACCESS:    6601025  HIT:    6395542  MISS:     205483
L1D WRITEBACK ACCESS:          0  HIT:          0  MISS:          0
L1D PREFETCH  REQUESTED:    6786995  ISSUED:    6676626  USEFUL:      49421  USELESS:     156066
L1D AVERAGE MISS LATENCY: 15.0468 cycles
L1D

SHEET
L1D-total_access : 20473572
L1D-total_hit : 19978896
L1D-total_miss : 494676
L1D-load_access : 6770824
L1D-load_hit : 6549035
L1D-load_miss : 221789
L1D-rfo_access : 7101723
L1D-rfo_hit : 7034319
L1D-rfo_miss : 67404
L1D-prefetch_access : 6601025
L1D-prefetch_hit : 6395542
L1D-prefetch_miss : 205483
L1D-writeback_access : 0
L1D-writeback_hit : 0
L1D-writeback_miss : 0
L1D-prefetch_requested : 6786995
L1D-prefetch_issued : 6676626
L1D-prefetch_useful : 49421
L1D-prefetch_useless : 156066
L1D-Avg_miss_latency : 15.0468
L1D-Morteza_fill_l2_prefetches : 0

L1I TOTAL     ACCESS:   19542381  HIT:   14308650  MISS:    5233731
L1I LOAD      ACCESS:    9274603  HIT:    8607242  MISS:     667361
L1I RFO       ACCESS:          0  HIT:          0  MISS:          0
L1I PREFETCH  ACCESS:   10267778  HIT:    5701408  MISS:    4566370
L1I WRITEBACK ACCESS:          0  HIT:          0  MISS:          0
L1I PREFETCH  REQUESTED:   11177940  ISSUED:   11029074  USEFUL:    3473910  USELESS:    1092441
L1I AVERAGE MISS LATENCY: 14.3122 cycles
L1I

SHEET
L1I-total_access : 19542381
L1I-total_hit : 14308650
L1I-total_miss : 5233731
L1I-load_access : 9274603
L1I-load_hit : 8607242
L1I-load_miss : 667361
L1I-rfo_access : 0
L1I-rfo_hit : 0
L1I-rfo_miss : 0
L1I-prefetch_access : 10267778
L1I-prefetch_hit : 5701408
L1I-prefetch_miss : 4566370
L1I-writeback_access : 0
L1I-writeback_hit : 0
L1I-writeback_miss : 0
L1I-prefetch_requested : 11177940
L1I-prefetch_issued : 11029074
L1I-prefetch_useful : 3473910
L1I-prefetch_useless : 1092441
L1I-Avg_miss_latency : 14.3122
L1I-Morteza_fill_l2_prefetches : 0

L2C TOTAL     ACCESS:    7752567  HIT:    7752522  MISS:         45
L2C LOAD      ACCESS:     728889  HIT:     728886  MISS:          3
L2C RFO       ACCESS:      66780  HIT:      66780  MISS:          0
L2C PREFETCH  ACCESS:    6776897  HIT:    6776855  MISS:         42
L2C WRITEBACK ACCESS:     180001  HIT:     180001  MISS:          0
L2C PREFETCH  REQUESTED:    5609069  ISSUED:    5605877  USEFUL:          1  USELESS:          0
L2C AVERAGE MISS LATENCY: 44.1333 cycles
L2C

SHEET
L2C-total_access : 7752567
L2C-total_hit : 7752522
L2C-total_miss : 45
L2C-load_access : 728889
L2C-load_hit : 728886
L2C-load_miss : 3
L2C-rfo_access : 66780
L2C-rfo_hit : 66780
L2C-rfo_miss : 0
L2C-prefetch_access : 6776897
L2C-prefetch_hit : 6776855
L2C-prefetch_miss : 42
L2C-writeback_access : 180001
L2C-writeback_hit : 180001
L2C-writeback_miss : 0
L2C-prefetch_requested : 5609069
L2C-prefetch_issued : 5605877
L2C-prefetch_useful : 1
L2C-prefetch_useless : 0
L2C-Avg_miss_latency : 44.1333
L2C-Morteza_fill_l2_prefetches : 1866411

LLC TOTAL     ACCESS:    1138684  HIT:    1138323  MISS:        361
LLC LOAD      ACCESS:          3  HIT:          3  MISS:          0
LLC RFO       ACCESS:          0  HIT:          0  MISS:          0
LLC PREFETCH  ACCESS:    1138681  HIT:    1138320  MISS:        361
LLC WRITEBACK ACCESS:          0  HIT:          0  MISS:          0
LLC PREFETCH  REQUESTED:          0  ISSUED:          0  USEFUL:          3  USELESS:          0
LLC AVERAGE MISS LATENCY: 177.291 cycles
LLC

SHEET
LLC-total_access : 1138684
LLC-total_hit : 1138323
LLC-total_miss : 361
LLC-load_access : 3
LLC-load_hit : 3
LLC-load_miss : 0
LLC-rfo_access : 0
LLC-rfo_hit : 0
LLC-rfo_miss : 0
LLC-prefetch_access : 1138681
LLC-prefetch_hit : 1138320
LLC-prefetch_miss : 361
LLC-writeback_access : 0
LLC-writeback_hit : 0
LLC-writeback_miss : 0
LLC-prefetch_requested : 0
LLC-prefetch_issued : 0
LLC-prefetch_useful : 3
LLC-prefetch_useless : 0
LLC-Avg_miss_latency : 177.291
LLC-Morteza_fill_l2_prefetches : 1138320

Major fault: 0 Minor fault: 356



Printing Logs
statHeadFound: 833269
statHeadMissing: 608277
statStreamBufferHit: 12787883
statPrefetchEntryFound: 7057952
statCompactorMatch: 11042528
statStreamTrackerLookup: 14229429
statRecord: 3186901
statGetPointer: 1441546
statEnqueuePrefetch: 22089019
statPrefetchQueueIsFull: 6087
StreamBufferHitRate: 0.898693
Regions' size: 729
next_region_correct: 2484866
next_region_wrong: 701288
next_region_correct_prediction: 0.779895
statStreamBufferLookups: 1024518888
statL1iLookups: 176712152
statCompactorLookups: 512259444
morteza: start

SHEET
mana_table_access_counter : 10250922
hobp_table_access_counter : 25577775
sab_access_counter : 19845835
srq_access_counter : 16674857

morteza: end
CPU 0 L1D next line prefetcher final stats

DRAM Statistics
 CHANNEL 0
 RQ ROW_BUFFER_HIT:         51  ROW_BUFFER_MISS:        310
 DBUS_CONGESTED:         66
 WQ ROW_BUFFER_HIT:          0  ROW_BUFFER_MISS:          0  FULL:          0

 AVG_CONGESTED_CYCLE: 5

CPU 0 Branch Prediction Accuracy: 99.9091% MPKI: 0.1547 Average ROB Occupancy at Mispredict: 183.213

Branch types
NOT_BRANCH: 41494960 82.9899%
BRANCH_DIRECT_JUMP: 491308 0.982616%
BRANCH_INDIRECT: 0 0%
BRANCH_CONDITIONAL: 5595253 11.1905%
BRANCH_DIRECT_CALL: 1028408 2.05682%
BRANCH_INDIRECT_CALL: 180756 0.361512%
BRANCH_RETURN: 1209169 2.41834%
BRANCH_OTHER: 0 0%

