Initialize SIGNATURE TABLE
ST_SET: 1
ST_WAY: 256
ST_TAG_BIT: 16
ST_TAG_MASK: ffff

Initialize PATTERN TABLE
PT_SET: 512
PT_WAY: 4
SIG_DELTA_BIT: 7
C_SIG_BIT: 4
C_DELTA_BIT: 4

Initialize PREFETCH FILTER
FILTER_SET: 1024
MANA initialize 
tds: 2 tdm: 2
size MANA SINGLE: 15.5 KB
size MANA NULTIPLE: 0 KB
size HOBPT: 0.703125 KB
size SRQ: 0.14502 KB
size SABs: 0.290039 KB
size prefetch queue: 0.453125 KB
total: 17.0913 KB

*** ChampSim Multicore Out-of-Order Simulator ***

Warmup Instructions: 50000000
Simulation Instructions: 50000000
Number of CPUs: 1
LLC sets: 2048
LLC ways: 16
Off-chip DRAM Size: 4096 MB Channels: 1 Width: 64-bit Data Rate: 3200 MT/s

CPU 0 runs /home/mbaradaran/ChampSim/dpc3_traces/server_010.champsimtrace.xz
CPU 0 L1D next line prefetcher
Heartbeat CPU 0 instructions: 10000000 cycles: 3204587 heartbeat IPC: 3.12053 cumulative IPC: 3.12053 (Simulation time: 0 hr 1 min 18 sec) 
Heartbeat CPU 0 instructions: 20000002 cycles: 6404677 heartbeat IPC: 3.12491 cumulative IPC: 3.12272 (Simulation time: 0 hr 2 min 34 sec) 
Heartbeat CPU 0 instructions: 30000001 cycles: 9608126 heartbeat IPC: 3.12164 cumulative IPC: 3.12236 (Simulation time: 0 hr 4 min 2 sec) 
Heartbeat CPU 0 instructions: 40000000 cycles: 12808008 heartbeat IPC: 3.12511 cumulative IPC: 3.12305 (Simulation time: 0 hr 5 min 20 sec) 
Heartbeat CPU 0 instructions: 50000003 cycles: 16014584 heartbeat IPC: 3.11859 cumulative IPC: 3.12215 (Simulation time: 0 hr 6 min 40 sec) 

Warmup complete CPU 0 instructions: 50000003 cycles: 16014584 (Simulation time: 0 hr 6 min 40 sec) 

Heartbeat CPU 0 instructions: 60000001 cycles: 23701609 heartbeat IPC: 1.30089 cumulative IPC: 1.30089 (Simulation time: 0 hr 8 min 2 sec) 
Heartbeat CPU 0 instructions: 70000000 cycles: 31530586 heartbeat IPC: 1.27731 cumulative IPC: 1.28899 (Simulation time: 0 hr 9 min 11 sec) 
Heartbeat CPU 0 instructions: 80000003 cycles: 39455296 heartbeat IPC: 1.26188 cumulative IPC: 1.27982 (Simulation time: 0 hr 10 min 22 sec) 
Heartbeat CPU 0 instructions: 90000002 cycles: 47056229 heartbeat IPC: 1.31563 cumulative IPC: 1.28859 (Simulation time: 0 hr 11 min 29 sec) 
Heartbeat CPU 0 instructions: 100000003 cycles: 67911989 heartbeat IPC: 0.479484 cumulative IPC: 0.963439 (Simulation time: 0 hr 13 min 27 sec) 
Finished CPU 0 instructions: 50000000 cycles: 51897405 cumulative IPC: 0.963439 (Simulation time: 0 hr 13 min 27 sec) 

ChampSim completed all CPUs

Region of Interest Statistics

CPU 0 cumulative IPC: 0.963439 instructions: 50000000 cycles: 51897405

SHEET
IPC : 0.963439

L1D TOTAL     ACCESS:   20113091  HIT:   16887404  MISS:    3225687
L1D LOAD      ACCESS:    7805847  HIT:    6214813  MISS:    1591034
L1D RFO       ACCESS:    4721119  HIT:    4626669  MISS:      94450
L1D PREFETCH  ACCESS:    7586125  HIT:    6045922  MISS:    1540203
L1D WRITEBACK ACCESS:          0  HIT:          0  MISS:          0
L1D PREFETCH  REQUESTED:    7840098  ISSUED:    7742783  USEFUL:     119410  USELESS:    1420764
L1D AVERAGE MISS LATENCY: 22.6815 cycles
L1D

SHEET
L1D-total_access : 20113091
L1D-total_hit : 16887404
L1D-total_miss : 3225687
L1D-load_access : 7805847
L1D-load_hit : 6214813
L1D-load_miss : 1591034
L1D-rfo_access : 4721119
L1D-rfo_hit : 4626669
L1D-rfo_miss : 94450
L1D-prefetch_access : 7586125
L1D-prefetch_hit : 6045922
L1D-prefetch_miss : 1540203
L1D-writeback_access : 0
L1D-writeback_hit : 0
L1D-writeback_miss : 0
L1D-prefetch_requested : 7840098
L1D-prefetch_issued : 7742783
L1D-prefetch_useful : 119410
L1D-prefetch_useless : 1420764
L1D-Avg_miss_latency : 22.6815
L1D-Morteza_fill_l2_prefetches : 0

L1I TOTAL     ACCESS:   16762181  HIT:   14337934  MISS:    2424247
L1I LOAD      ACCESS:    9911857  HIT:    9557666  MISS:     354191
L1I RFO       ACCESS:          0  HIT:          0  MISS:          0
L1I PREFETCH  ACCESS:    6850324  HIT:    4780268  MISS:    2070056
L1I WRITEBACK ACCESS:          0  HIT:          0  MISS:          0
L1I PREFETCH  REQUESTED:    7597694  ISSUED:    7163790  USEFUL:    1183351  USELESS:     886760
L1I AVERAGE MISS LATENCY: 25.3907 cycles
L1I

SHEET
L1I-total_access : 16762181
L1I-total_hit : 14337934
L1I-total_miss : 2424247
L1I-load_access : 9911857
L1I-load_hit : 9557666
L1I-load_miss : 354191
L1I-rfo_access : 0
L1I-rfo_hit : 0
L1I-rfo_miss : 0
L1I-prefetch_access : 6850324
L1I-prefetch_hit : 4780268
L1I-prefetch_miss : 2070056
L1I-writeback_access : 0
L1I-writeback_hit : 0
L1I-writeback_miss : 0
L1I-prefetch_requested : 7597694
L1I-prefetch_issued : 7163790
L1I-prefetch_useful : 1183351
L1I-prefetch_useless : 886760
L1I-Avg_miss_latency : 25.3907
L1I-Morteza_fill_l2_prefetches : 0

L2C TOTAL     ACCESS:    7286732  HIT:    6125478  MISS:    1161254
L2C LOAD      ACCESS:    1845086  HIT:    1497015  MISS:     348071
L2C RFO       ACCESS:      93384  HIT:      48583  MISS:      44801
L2C PREFETCH  ACCESS:    5082863  HIT:    4316115  MISS:     766748
L2C WRITEBACK ACCESS:     265399  HIT:     263765  MISS:       1634
L2C PREFETCH  REQUESTED:    7357215  ISSUED:    7350349  USEFUL:      59411  USELESS:     707566
L2C AVERAGE MISS LATENCY: 44.6053 cycles
L2C

SHEET
L2C-total_access : 7286732
L2C-total_hit : 6125478
L2C-total_miss : 1161254
L2C-load_access : 1845086
L2C-load_hit : 1497015
L2C-load_miss : 348071
L2C-rfo_access : 93384
L2C-rfo_hit : 48583
L2C-rfo_miss : 44801
L2C-prefetch_access : 5082863
L2C-prefetch_hit : 4316115
L2C-prefetch_miss : 766748
L2C-writeback_access : 265399
L2C-writeback_hit : 263765
L2C-writeback_miss : 1634
L2C-prefetch_requested : 7357215
L2C-prefetch_issued : 7350349
L2C-prefetch_useful : 59411
L2C-prefetch_useless : 707566
L2C-Avg_miss_latency : 44.6053
L2C-Morteza_fill_l2_prefetches : 1388707

LLC TOTAL     ACCESS:    2664946  HIT:    2536827  MISS:     128119
LLC LOAD      ACCESS:     347197  HIT:     327075  MISS:      20122
LLC RFO       ACCESS:      44797  HIT:      36482  MISS:       8315
LLC PREFETCH  ACCESS:    2119744  HIT:    2020251  MISS:      99493
LLC WRITEBACK ACCESS:     153208  HIT:     153019  MISS:        189
LLC PREFETCH  REQUESTED:          0  ISSUED:          0  USEFUL:      11716  USELESS:      88609
LLC AVERAGE MISS LATENCY: 170.667 cycles
LLC

SHEET
LLC-total_access : 2664946
LLC-total_hit : 2536827
LLC-total_miss : 128119
LLC-load_access : 347197
LLC-load_hit : 327075
LLC-load_miss : 20122
LLC-rfo_access : 44797
LLC-rfo_hit : 36482
LLC-rfo_miss : 8315
LLC-prefetch_access : 2119744
LLC-prefetch_hit : 2020251
LLC-prefetch_miss : 99493
LLC-writeback_access : 153208
LLC-writeback_hit : 153019
LLC-writeback_miss : 189
LLC-prefetch_requested : 0
LLC-prefetch_issued : 0
LLC-prefetch_useful : 11716
LLC-prefetch_useless : 88609
LLC-Avg_miss_latency : 170.667
LLC-Morteza_fill_l2_prefetches : 1357620

Major fault: 0 Minor fault: 5593



Printing Logs
statHeadFound: 470008
statHeadMissing: 985648
statStreamBufferHit: 11505222
statPrefetchEntryFound: 4152547
statCompactorMatch: 11071836
statStreamTrackerLookup: 12960878
statRecord: 1889042
statGetPointer: 1455656
statEnqueuePrefetch: 14440624
statPrefetchQueueIsFull: 69107
StreamBufferHitRate: 0.887688
Regions' size: 3690
next_region_correct: 1570971
next_region_wrong: 314363
next_region_correct_prediction: 0.833259
statStreamBufferLookups: 933183216
statL1iLookups: 115524992
statCompactorLookups: 466591608
morteza: start

SHEET
mana_table_access_counter : 6110678
hobp_table_access_counter : 17600459
sab_access_counter : 15657769
srq_access_counter : 12895914

morteza: end
CPU 0 L1D next line prefetcher final stats

DRAM Statistics
 CHANNEL 0
 RQ ROW_BUFFER_HIT:      20852  ROW_BUFFER_MISS:     107072
 DBUS_CONGESTED:      56882
 WQ ROW_BUFFER_HIT:       9763  ROW_BUFFER_MISS:      42468  FULL:          0

 AVG_CONGESTED_CYCLE: 5

CPU 0 Branch Prediction Accuracy: 99.5528% MPKI: 0.89798 Average ROB Occupancy at Mispredict: 111.368

Branch types
NOT_BRANCH: 39958802 79.9176%
BRANCH_DIRECT_JUMP: 449946 0.899892%
BRANCH_INDIRECT: 140210 0.28042%
BRANCH_CONDITIONAL: 7679678 15.3594%
BRANCH_DIRECT_CALL: 701578 1.40316%
BRANCH_INDIRECT_CALL: 168971 0.337942%
BRANCH_RETURN: 900560 1.80112%
BRANCH_OTHER: 0 0%

