Initialize SIGNATURE TABLE
ST_SET: 1
ST_WAY: 256
ST_TAG_BIT: 16
ST_TAG_MASK: ffff

Initialize PATTERN TABLE
PT_SET: 512
PT_WAY: 4
SIG_DELTA_BIT: 7
C_SIG_BIT: 4
C_DELTA_BIT: 4

Initialize PREFETCH FILTER
FILTER_SET: 1024
MANA initialize 
tds: 2 tdm: 2
size MANA SINGLE: 15.5 KB
size MANA NULTIPLE: 0 KB
size HOBPT: 0.703125 KB
size SRQ: 0.14502 KB
size SABs: 0.290039 KB
size prefetch queue: 0.453125 KB
total: 17.0913 KB

*** ChampSim Multicore Out-of-Order Simulator ***

Warmup Instructions: 50000000
Simulation Instructions: 50000000
Number of CPUs: 1
LLC sets: 2048
LLC ways: 16
Off-chip DRAM Size: 4096 MB Channels: 1 Width: 64-bit Data Rate: 3200 MT/s

CPU 0 runs /home/mbaradaran/ChampSim/dpc3_traces/server_025.champsimtrace.xz
CPU 0 L1D next line prefetcher
Heartbeat CPU 0 instructions: 10000003 cycles: 3536980 heartbeat IPC: 2.82727 cumulative IPC: 2.82727 (Simulation time: 0 hr 1 min 27 sec) 
Heartbeat CPU 0 instructions: 20000000 cycles: 7080911 heartbeat IPC: 2.82172 cumulative IPC: 2.8245 (Simulation time: 0 hr 2 min 55 sec) 
Heartbeat CPU 0 instructions: 30000001 cycles: 10617325 heartbeat IPC: 2.82772 cumulative IPC: 2.82557 (Simulation time: 0 hr 4 min 18 sec) 
Heartbeat CPU 0 instructions: 40000003 cycles: 14159282 heartbeat IPC: 2.8233 cumulative IPC: 2.825 (Simulation time: 0 hr 5 min 46 sec) 
Heartbeat CPU 0 instructions: 50000001 cycles: 17699772 heartbeat IPC: 2.82447 cumulative IPC: 2.8249 (Simulation time: 0 hr 7 min 12 sec) 

Warmup complete CPU 0 instructions: 50000001 cycles: 17699772 (Simulation time: 0 hr 7 min 12 sec) 

Heartbeat CPU 0 instructions: 60000003 cycles: 25004570 heartbeat IPC: 1.36896 cumulative IPC: 1.36896 (Simulation time: 0 hr 8 min 30 sec) 
Heartbeat CPU 0 instructions: 70000000 cycles: 32428923 heartbeat IPC: 1.34692 cumulative IPC: 1.35785 (Simulation time: 0 hr 9 min 52 sec) 
Heartbeat CPU 0 instructions: 80000002 cycles: 39737672 heartbeat IPC: 1.36822 cumulative IPC: 1.36129 (Simulation time: 0 hr 11 min 10 sec) 
Heartbeat CPU 0 instructions: 90000001 cycles: 46596484 heartbeat IPC: 1.45798 cumulative IPC: 1.38424 (Simulation time: 0 hr 12 min 30 sec) 
Heartbeat CPU 0 instructions: 100000003 cycles: 53101719 heartbeat IPC: 1.53722 cumulative IPC: 1.41235 (Simulation time: 0 hr 13 min 52 sec) 
Finished CPU 0 instructions: 50000002 cycles: 35401947 cumulative IPC: 1.41235 (Simulation time: 0 hr 13 min 52 sec) 

ChampSim completed all CPUs

Region of Interest Statistics

CPU 0 cumulative IPC: 1.41235 instructions: 50000002 cycles: 35401947

SHEET
IPC : 1.41235

L1D TOTAL     ACCESS:   20474364  HIT:   19048227  MISS:    1426137
L1D LOAD      ACCESS:    7195153  HIT:    6577718  MISS:     617435
L1D RFO       ACCESS:    6392990  HIT:    6144307  MISS:     248683
L1D PREFETCH  ACCESS:    6886221  HIT:    6326202  MISS:     560019
L1D WRITEBACK ACCESS:          0  HIT:          0  MISS:          0
L1D PREFETCH  REQUESTED:    7236051  ISSUED:    7066868  USEFUL:     132443  USELESS:     427568
L1D AVERAGE MISS LATENCY: 22.8349 cycles
L1D

SHEET
L1D-total_access : 20474364
L1D-total_hit : 19048227
L1D-total_miss : 1426137
L1D-load_access : 7195153
L1D-load_hit : 6577718
L1D-load_miss : 617435
L1D-rfo_access : 6392990
L1D-rfo_hit : 6144307
L1D-rfo_miss : 248683
L1D-prefetch_access : 6886221
L1D-prefetch_hit : 6326202
L1D-prefetch_miss : 560019
L1D-writeback_access : 0
L1D-writeback_hit : 0
L1D-writeback_miss : 0
L1D-prefetch_requested : 7236051
L1D-prefetch_issued : 7066868
L1D-prefetch_useful : 132443
L1D-prefetch_useless : 427568
L1D-Avg_miss_latency : 22.8349
L1D-Morteza_fill_l2_prefetches : 0

L1I TOTAL     ACCESS:   19237485  HIT:   14941220  MISS:    4296265
L1I LOAD      ACCESS:    9304146  HIT:    8522028  MISS:     782118
L1I RFO       ACCESS:          0  HIT:          0  MISS:          0
L1I PREFETCH  ACCESS:    9933339  HIT:    6419192  MISS:    3514147
L1I WRITEBACK ACCESS:          0  HIT:          0  MISS:          0
L1I PREFETCH  REQUESTED:   10921532  ISSUED:   10695446  USEFUL:    1893483  USELESS:    1620679
L1I AVERAGE MISS LATENCY: 16.339 cycles
L1I

SHEET
L1I-total_access : 19237485
L1I-total_hit : 14941220
L1I-total_miss : 4296265
L1I-load_access : 9304146
L1I-load_hit : 8522028
L1I-load_miss : 782118
L1I-rfo_access : 0
L1I-rfo_hit : 0
L1I-rfo_miss : 0
L1I-prefetch_access : 9933339
L1I-prefetch_hit : 6419192
L1I-prefetch_miss : 3514147
L1I-writeback_access : 0
L1I-writeback_hit : 0
L1I-writeback_miss : 0
L1I-prefetch_requested : 10921532
L1I-prefetch_issued : 10695446
L1I-prefetch_useful : 1893483
L1I-prefetch_useless : 1620679
L1I-Avg_miss_latency : 16.339
L1I-Morteza_fill_l2_prefetches : 0

L2C TOTAL     ACCESS:    7693189  HIT:    7084790  MISS:     608399
L2C LOAD      ACCESS:    1191560  HIT:    1026877  MISS:     164683
L2C RFO       ACCESS:     246820  HIT:     172335  MISS:      74485
L2C PREFETCH  ACCESS:    5758121  HIT:    5392824  MISS:     365297
L2C WRITEBACK ACCESS:     496688  HIT:     492754  MISS:       3934
L2C PREFETCH  REQUESTED:    5899048  ISSUED:    5890918  USEFUL:      31509  USELESS:     332813
L2C AVERAGE MISS LATENCY: 38.8708 cycles
L2C

SHEET
L2C-total_access : 7693189
L2C-total_hit : 7084790
L2C-total_miss : 608399
L2C-load_access : 1191560
L2C-load_hit : 1026877
L2C-load_miss : 164683
L2C-rfo_access : 246820
L2C-rfo_hit : 172335
L2C-rfo_miss : 74485
L2C-prefetch_access : 5758121
L2C-prefetch_hit : 5392824
L2C-prefetch_miss : 365297
L2C-writeback_access : 496688
L2C-writeback_hit : 492754
L2C-writeback_miss : 3934
L2C-prefetch_requested : 5899048
L2C-prefetch_issued : 5890918
L2C-prefetch_useful : 31509
L2C-prefetch_useless : 332813
L2C-Avg_miss_latency : 38.8708
L2C-Morteza_fill_l2_prefetches : 1506487

LLC TOTAL     ACCESS:    2302737  HIT:    2272158  MISS:      30579
LLC LOAD      ACCESS:     164606  HIT:     161108  MISS:       3498
LLC RFO       ACCESS:      74479  HIT:      63724  MISS:      10755
LLC PREFETCH  ACCESS:    1940080  HIT:    1923993  MISS:      16087
LLC WRITEBACK ACCESS:     123572  HIT:     123333  MISS:        239
LLC PREFETCH  REQUESTED:          0  ISSUED:          0  USEFUL:       1257  USELESS:      12735
LLC AVERAGE MISS LATENCY: 181.334 cycles
LLC

SHEET
LLC-total_access : 2302737
LLC-total_hit : 2272158
LLC-total_miss : 30579
LLC-load_access : 164606
LLC-load_hit : 161108
LLC-load_miss : 3498
LLC-rfo_access : 74479
LLC-rfo_hit : 63724
LLC-rfo_miss : 10755
LLC-prefetch_access : 1940081
LLC-prefetch_hit : 1923994
LLC-prefetch_miss : 16087
LLC-writeback_access : 123572
LLC-writeback_hit : 123333
LLC-writeback_miss : 239
LLC-prefetch_requested : 0
LLC-prefetch_issued : 0
LLC-prefetch_useful : 1257
LLC-prefetch_useless : 12735
LLC-Avg_miss_latency : 181.334
LLC-Morteza_fill_l2_prefetches : 1578373

Major fault: 0 Minor fault: 2457



Printing Logs
statHeadFound: 1006206
statHeadMissing: 1147275
statStreamBufferHit: 12250179
statPrefetchEntryFound: 7235490
statCompactorMatch: 11757573
statStreamTrackerLookup: 14403660
statRecord: 2646087
statGetPointer: 2153481
statEnqueuePrefetch: 21514209
statPrefetchQueueIsFull: 73142
StreamBufferHitRate: 0.850491
Regions' size: 2189
next_region_correct: 1870970
next_region_wrong: 772910
next_region_correct_prediction: 0.707661
statStreamBufferLookups: 1037063520
statL1iLookups: 172113672
statCompactorLookups: 518531760
morteza: start

SHEET
mana_table_access_counter : 9954701
hobp_table_access_counter : 26506904
sab_access_counter : 19485669
srq_access_counter : 15661506

morteza: end
CPU 0 L1D next line prefetcher final stats

DRAM Statistics
 CHANNEL 0
 RQ ROW_BUFFER_HIT:       9216  ROW_BUFFER_MISS:      21117
 DBUS_CONGESTED:      19766
 WQ ROW_BUFFER_HIT:       1467  ROW_BUFFER_MISS:      12496  FULL:          0

 AVG_CONGESTED_CYCLE: 6

CPU 0 Branch Prediction Accuracy: 99.8142% MPKI: 0.34676 Average ROB Occupancy at Mispredict: 158.839

Branch types
NOT_BRANCH: 40668789 81.3376%
BRANCH_DIRECT_JUMP: 531700 1.0634%
BRANCH_INDIRECT: 199025 0.39805%
BRANCH_CONDITIONAL: 6211477 12.423%
BRANCH_DIRECT_CALL: 1010909 2.02182%
BRANCH_INDIRECT_CALL: 183501 0.367002%
BRANCH_RETURN: 1194412 2.38882%
BRANCH_OTHER: 0 0%

