Initialize SIGNATURE TABLE
ST_SET: 1
ST_WAY: 256
ST_TAG_BIT: 16
ST_TAG_MASK: ffff

Initialize PATTERN TABLE
PT_SET: 512
PT_WAY: 4
SIG_DELTA_BIT: 7
C_SIG_BIT: 4
C_DELTA_BIT: 4

Initialize PREFETCH FILTER
FILTER_SET: 1024
MANA initialize 
tds: 2 tdm: 2
size MANA SINGLE: 15.5 KB
size MANA NULTIPLE: 0 KB
size HOBPT: 0.703125 KB
size SRQ: 0.14502 KB
size SABs: 0.290039 KB
size prefetch queue: 0.453125 KB
total: 17.0913 KB

*** ChampSim Multicore Out-of-Order Simulator ***

Warmup Instructions: 50000000
Simulation Instructions: 50000000
Number of CPUs: 1
LLC sets: 2048
LLC ways: 16
Off-chip DRAM Size: 4096 MB Channels: 1 Width: 64-bit Data Rate: 3200 MT/s

CPU 0 runs /home/mbaradaran/ChampSim/dpc3_traces/server_032.champsimtrace.xz
CPU 0 L1D next line prefetcher
Heartbeat CPU 0 instructions: 10000002 cycles: 3535143 heartbeat IPC: 2.82874 cumulative IPC: 2.82874 (Simulation time: 0 hr 1 min 35 sec) 
Heartbeat CPU 0 instructions: 20000003 cycles: 7072166 heartbeat IPC: 2.82724 cumulative IPC: 2.82799 (Simulation time: 0 hr 3 min 6 sec) 
Heartbeat CPU 0 instructions: 30000000 cycles: 10608281 heartbeat IPC: 2.82796 cumulative IPC: 2.82798 (Simulation time: 0 hr 4 min 31 sec) 
Heartbeat CPU 0 instructions: 40000003 cycles: 14145669 heartbeat IPC: 2.82695 cumulative IPC: 2.82772 (Simulation time: 0 hr 6 min 7 sec) 
Heartbeat CPU 0 instructions: 50000000 cycles: 17681934 heartbeat IPC: 2.82784 cumulative IPC: 2.82774 (Simulation time: 0 hr 7 min 34 sec) 

Warmup complete CPU 0 instructions: 50000004 cycles: 17681935 (Simulation time: 0 hr 7 min 34 sec) 

Heartbeat CPU 0 instructions: 60000002 cycles: 24845863 heartbeat IPC: 1.39588 cumulative IPC: 1.39588 (Simulation time: 0 hr 8 min 53 sec) 
Heartbeat CPU 0 instructions: 70000000 cycles: 32011199 heartbeat IPC: 1.39561 cumulative IPC: 1.39574 (Simulation time: 0 hr 10 min 17 sec) 
*** Reached end of trace for Core: 0 Repeating trace: /home/mbaradaran/ChampSim/dpc3_traces/server_032.champsimtrace.xz
Heartbeat CPU 0 instructions: 80000003 cycles: 39167184 heartbeat IPC: 1.39743 cumulative IPC: 1.39631 (Simulation time: 0 hr 11 min 43 sec) 
Heartbeat CPU 0 instructions: 90000002 cycles: 46297394 heartbeat IPC: 1.40248 cumulative IPC: 1.39785 (Simulation time: 0 hr 13 min 14 sec) 
Heartbeat CPU 0 instructions: 100000001 cycles: 53438023 heartbeat IPC: 1.40044 cumulative IPC: 1.39836 (Simulation time: 0 hr 14 min 42 sec) 
Finished CPU 0 instructions: 50000002 cycles: 35756092 cumulative IPC: 1.39836 (Simulation time: 0 hr 14 min 42 sec) 

ChampSim completed all CPUs

Region of Interest Statistics

CPU 0 cumulative IPC: 1.39836 instructions: 50000002 cycles: 35756092

SHEET
IPC : 1.39836

L1D TOTAL     ACCESS:   20404494  HIT:   18575182  MISS:    1829312
L1D LOAD      ACCESS:    7056194  HIT:    6262383  MISS:     793811
L1D RFO       ACCESS:    6567850  HIT:    6273425  MISS:     294425
L1D PREFETCH  ACCESS:    6780450  HIT:    6039374  MISS:     741076
L1D WRITEBACK ACCESS:          0  HIT:          0  MISS:          0
L1D PREFETCH  REQUESTED:    7105104  ISSUED:    6976835  USEFUL:     170951  USELESS:     570125
L1D AVERAGE MISS LATENCY: 19.0789 cycles
L1D

SHEET
L1D-total_access : 20404494
L1D-total_hit : 18575182
L1D-total_miss : 1829312
L1D-load_access : 7056194
L1D-load_hit : 6262383
L1D-load_miss : 793811
L1D-rfo_access : 6567850
L1D-rfo_hit : 6273425
L1D-rfo_miss : 294425
L1D-prefetch_access : 6780450
L1D-prefetch_hit : 6039374
L1D-prefetch_miss : 741076
L1D-writeback_access : 0
L1D-writeback_hit : 0
L1D-writeback_miss : 0
L1D-prefetch_requested : 7105104
L1D-prefetch_issued : 6976835
L1D-prefetch_useful : 170951
L1D-prefetch_useless : 570125
L1D-Avg_miss_latency : 19.0789
L1D-Morteza_fill_l2_prefetches : 0

L1I TOTAL     ACCESS:   19785302  HIT:   14524854  MISS:    5260448
L1I LOAD      ACCESS:    9446001  HIT:    8482364  MISS:     963637
L1I RFO       ACCESS:          0  HIT:          0  MISS:          0
L1I PREFETCH  ACCESS:   10339301  HIT:    6042490  MISS:    4296811
L1I WRITEBACK ACCESS:          0  HIT:          0  MISS:          0
L1I PREFETCH  REQUESTED:   11534843  ISSUED:   11244557  USEFUL:    2450509  USELESS:    1846307
L1I AVERAGE MISS LATENCY: 15.7514 cycles
L1I

SHEET
L1I-total_access : 19785302
L1I-total_hit : 14524854
L1I-total_miss : 5260448
L1I-load_access : 9446001
L1I-load_hit : 8482364
L1I-load_miss : 963637
L1I-rfo_access : 0
L1I-rfo_hit : 0
L1I-rfo_miss : 0
L1I-prefetch_access : 10339301
L1I-prefetch_hit : 6042490
L1I-prefetch_miss : 4296811
L1I-writeback_access : 0
L1I-writeback_hit : 0
L1I-writeback_miss : 0
L1I-prefetch_requested : 11534843
L1I-prefetch_issued : 11244557
L1I-prefetch_useful : 2450509
L1I-prefetch_useless : 1846307
L1I-Avg_miss_latency : 15.7514
L1I-Morteza_fill_l2_prefetches : 0

L2C TOTAL     ACCESS:    9852203  HIT:    9324459  MISS:     527744
L2C LOAD      ACCESS:    1511441  HIT:    1378376  MISS:     133065
L2C RFO       ACCESS:     292520  HIT:     246192  MISS:      46328
L2C PREFETCH  ACCESS:    7412016  HIT:    7078056  MISS:     333960
L2C WRITEBACK ACCESS:     636226  HIT:     621835  MISS:      14391
L2C PREFETCH  REQUESTED:    8928658  ISSUED:    8854931  USEFUL:      16324  USELESS:     317467
L2C AVERAGE MISS LATENCY: 32.3247 cycles
L2C

SHEET
L2C-total_access : 9852203
L2C-total_hit : 9324459
L2C-total_miss : 527744
L2C-load_access : 1511441
L2C-load_hit : 1378376
L2C-load_miss : 133065
L2C-rfo_access : 292520
L2C-rfo_hit : 246192
L2C-rfo_miss : 46328
L2C-prefetch_access : 7412016
L2C-prefetch_hit : 7078056
L2C-prefetch_miss : 333960
L2C-writeback_access : 636226
L2C-writeback_hit : 621835
L2C-writeback_miss : 14391
L2C-prefetch_requested : 8928658
L2C-prefetch_issued : 8854931
L2C-prefetch_useful : 16324
L2C-prefetch_useless : 317467
L2C-Avg_miss_latency : 32.3247
L2C-Morteza_fill_l2_prefetches : 2157710

LLC TOTAL     ACCESS:    3285881  HIT:    3279404  MISS:       6477
LLC LOAD      ACCESS:     132808  HIT:     132340  MISS:        468
LLC RFO       ACCESS:      46328  HIT:      46328  MISS:          0
LLC PREFETCH  ACCESS:    3016476  HIT:    3010482  MISS:       5994
LLC WRITEBACK ACCESS:      90269  HIT:      90254  MISS:         15
LLC PREFETCH  REQUESTED:          0  ISSUED:          0  USEFUL:        387  USELESS:       1868
LLC AVERAGE MISS LATENCY: 150.497 cycles
LLC

SHEET
LLC-total_access : 3285881
LLC-total_hit : 3279404
LLC-total_miss : 6477
LLC-load_access : 132808
LLC-load_hit : 132340
LLC-load_miss : 468
LLC-rfo_access : 46328
LLC-rfo_hit : 46328
LLC-rfo_miss : 0
LLC-prefetch_access : 3016476
LLC-prefetch_hit : 3010482
LLC-prefetch_miss : 5994
LLC-writeback_access : 90269
LLC-writeback_hit : 90254
LLC-writeback_miss : 15
LLC-prefetch_requested : 0
LLC-prefetch_issued : 0
LLC-prefetch_useful : 387
LLC-prefetch_useless : 1868
LLC-Avg_miss_latency : 150.497
LLC-Morteza_fill_l2_prefetches : 2686660

Major fault: 0 Minor fault: 1178



Printing Logs
statHeadFound: 1069082
statHeadMissing: 1107970
statStreamBufferHit: 12317070
statPrefetchEntryFound: 7658263
statCompactorMatch: 11554920
statStreamTrackerLookup: 14494122
statRecord: 2939202
statGetPointer: 2177052
statEnqueuePrefetch: 22482935
statPrefetchQueueIsFull: 70256
StreamBufferHitRate: 0.849798
Regions' size: 1342
next_region_correct: 2101071
next_region_wrong: 836771
next_region_correct_prediction: 0.715175
statStreamBufferLookups: 1043576784
statL1iLookups: 179863480
statCompactorLookups: 521788392
morteza: start

SHEET
mana_table_access_counter : 10667703
hobp_table_access_counter : 28193528
sab_access_counter : 19975333
srq_access_counter : 16060479

morteza: end
CPU 0 L1D next line prefetcher final stats

DRAM Statistics
 CHANNEL 0
 RQ ROW_BUFFER_HIT:       1667  ROW_BUFFER_MISS:       4795
 DBUS_CONGESTED:        996
 WQ ROW_BUFFER_HIT:          1  ROW_BUFFER_MISS:         11  FULL:          0

 AVG_CONGESTED_CYCLE: 5

CPU 0 Branch Prediction Accuracy: 99.8762% MPKI: 0.2296 Average ROB Occupancy at Mispredict: 151.715

Branch types
NOT_BRANCH: 40725938 81.4519%
BRANCH_DIRECT_JUMP: 508368 1.01674%
BRANCH_INDIRECT: 180051 0.360102%
BRANCH_CONDITIONAL: 5999627 11.9993%
BRANCH_DIRECT_CALL: 1086730 2.17346%
BRANCH_INDIRECT_CALL: 206109 0.412218%
BRANCH_RETURN: 1292826 2.58565%
BRANCH_OTHER: 0 0%

