Initialize SIGNATURE TABLE
ST_SET: 1
ST_WAY: 256
ST_TAG_BIT: 16
ST_TAG_MASK: ffff

Initialize PATTERN TABLE
PT_SET: 512
PT_WAY: 4
SIG_DELTA_BIT: 7
C_SIG_BIT: 4
C_DELTA_BIT: 4

Initialize PREFETCH FILTER
FILTER_SET: 1024
MANA initialize 
tds: 2 tdm: 2
size MANA SINGLE: 15.5 KB
size MANA NULTIPLE: 0 KB
size HOBPT: 0.703125 KB
size SRQ: 0.14502 KB
size SABs: 0.290039 KB
size prefetch queue: 0.453125 KB
total: 17.0913 KB

*** ChampSim Multicore Out-of-Order Simulator ***

Warmup Instructions: 50000000
Simulation Instructions: 50000000
Number of CPUs: 1
LLC sets: 2048
LLC ways: 16
Off-chip DRAM Size: 4096 MB Channels: 1 Width: 64-bit Data Rate: 3200 MT/s

CPU 0 runs /home/mbaradaran/ChampSim/dpc3_traces/server_014.champsimtrace.xz
CPU 0 L1D next line prefetcher
Heartbeat CPU 0 instructions: 10000003 cycles: 3519618 heartbeat IPC: 2.84122 cumulative IPC: 2.84122 (Simulation time: 0 hr 1 min 22 sec) 
Heartbeat CPU 0 instructions: 20000000 cycles: 7106765 heartbeat IPC: 2.78773 cumulative IPC: 2.81422 (Simulation time: 0 hr 2 min 45 sec) 
Heartbeat CPU 0 instructions: 30000001 cycles: 10648340 heartbeat IPC: 2.8236 cumulative IPC: 2.81734 (Simulation time: 0 hr 4 min 16 sec) 
Heartbeat CPU 0 instructions: 40000003 cycles: 14196562 heartbeat IPC: 2.81831 cumulative IPC: 2.81758 (Simulation time: 0 hr 5 min 44 sec) 
Heartbeat CPU 0 instructions: 50000000 cycles: 17745238 heartbeat IPC: 2.81795 cumulative IPC: 2.81766 (Simulation time: 0 hr 7 min 11 sec) 

Warmup complete CPU 0 instructions: 50000001 cycles: 17745239 (Simulation time: 0 hr 7 min 11 sec) 

Heartbeat CPU 0 instructions: 60000000 cycles: 24197524 heartbeat IPC: 1.54984 cumulative IPC: 1.54984 (Simulation time: 0 hr 8 min 26 sec) 
Heartbeat CPU 0 instructions: 70000003 cycles: 30654293 heartbeat IPC: 1.54876 cumulative IPC: 1.5493 (Simulation time: 0 hr 9 min 44 sec) 
*** Reached end of trace for Core: 0 Repeating trace: /home/mbaradaran/ChampSim/dpc3_traces/server_014.champsimtrace.xz
Heartbeat CPU 0 instructions: 80000001 cycles: 37422275 heartbeat IPC: 1.47755 cumulative IPC: 1.52462 (Simulation time: 0 hr 11 min 0 sec) 
Heartbeat CPU 0 instructions: 90000003 cycles: 45183615 heartbeat IPC: 1.28844 cumulative IPC: 1.45781 (Simulation time: 0 hr 12 min 14 sec) 
Heartbeat CPU 0 instructions: 100000001 cycles: 51823382 heartbeat IPC: 1.50608 cumulative IPC: 1.46722 (Simulation time: 0 hr 13 min 27 sec) 
Finished CPU 0 instructions: 50000000 cycles: 34078143 cumulative IPC: 1.46722 (Simulation time: 0 hr 13 min 27 sec) 

ChampSim completed all CPUs

Region of Interest Statistics

CPU 0 cumulative IPC: 1.46722 instructions: 50000000 cycles: 34078143

SHEET
IPC : 1.46722

L1D TOTAL     ACCESS:   21926755  HIT:   21855891  MISS:      70864
L1D LOAD      ACCESS:    6818784  HIT:    6791862  MISS:      26922
L1D RFO       ACCESS:    8418235  HIT:    8386160  MISS:      32075
L1D PREFETCH  ACCESS:    6689736  HIT:    6677869  MISS:      11867
L1D WRITEBACK ACCESS:          0  HIT:          0  MISS:          0
L1D PREFETCH  REQUESTED:    6823214  ISSUED:    6718570  USEFUL:       3310  USELESS:       8557
L1D AVERAGE MISS LATENCY: 231.767 cycles
L1D

SHEET
L1D-total_access : 21926755
L1D-total_hit : 21855891
L1D-total_miss : 70864
L1D-load_access : 6818784
L1D-load_hit : 6791862
L1D-load_miss : 26922
L1D-rfo_access : 8418235
L1D-rfo_hit : 8386160
L1D-rfo_miss : 32075
L1D-prefetch_access : 6689736
L1D-prefetch_hit : 6677869
L1D-prefetch_miss : 11867
L1D-writeback_access : 0
L1D-writeback_hit : 0
L1D-writeback_miss : 0
L1D-prefetch_requested : 6823214
L1D-prefetch_issued : 6718570
L1D-prefetch_useful : 3310
L1D-prefetch_useless : 8557
L1D-Avg_miss_latency : 231.767
L1D-Morteza_fill_l2_prefetches : 0

L1I TOTAL     ACCESS:   21569201  HIT:   18399036  MISS:    3170165
L1I LOAD      ACCESS:    9530089  HIT:    9040389  MISS:     489700
L1I RFO       ACCESS:          0  HIT:          0  MISS:          0
L1I PREFETCH  ACCESS:   12039112  HIT:    9358647  MISS:    2680465
L1I WRITEBACK ACCESS:          0  HIT:          0  MISS:          0
L1I PREFETCH  REQUESTED:   13170385  ISSUED:   12890380  USEFUL:    1832034  USELESS:     848421
L1I AVERAGE MISS LATENCY: 14.4959 cycles
L1I

SHEET
L1I-total_access : 21569201
L1I-total_hit : 18399036
L1I-total_miss : 3170165
L1I-load_access : 9530089
L1I-load_hit : 9040389
L1I-load_miss : 489700
L1I-rfo_access : 0
L1I-rfo_hit : 0
L1I-rfo_miss : 0
L1I-prefetch_access : 12039112
L1I-prefetch_hit : 9358647
L1I-prefetch_miss : 2680465
L1I-writeback_access : 0
L1I-writeback_hit : 0
L1I-writeback_miss : 0
L1I-prefetch_requested : 13170385
L1I-prefetch_issued : 12890380
L1I-prefetch_useful : 1832034
L1I-prefetch_useless : 848421
L1I-Avg_miss_latency : 14.4959
L1I-Morteza_fill_l2_prefetches : 0

L2C TOTAL     ACCESS:    4490683  HIT:    4417799  MISS:      72884
L2C LOAD      ACCESS:     395585  HIT:     374863  MISS:      20722
L2C RFO       ACCESS:      32022  HIT:       1080  MISS:      30942
L2C PREFETCH  ACCESS:    4024707  HIT:    4003505  MISS:      21202
L2C WRITEBACK ACCESS:      38369  HIT:      38351  MISS:         18
L2C PREFETCH  REQUESTED:    3246981  ISSUED:    3246757  USEFUL:       1741  USELESS:      19270
L2C AVERAGE MISS LATENCY: 257.088 cycles
L2C

SHEET
L2C-total_access : 4490683
L2C-total_hit : 4417799
L2C-total_miss : 72884
L2C-load_access : 395585
L2C-load_hit : 374863
L2C-load_miss : 20722
L2C-rfo_access : 32022
L2C-rfo_hit : 1080
L2C-rfo_miss : 30942
L2C-prefetch_access : 4024707
L2C-prefetch_hit : 4003505
L2C-prefetch_miss : 21202
L2C-writeback_access : 38369
L2C-writeback_hit : 38351
L2C-writeback_miss : 18
L2C-prefetch_requested : 3246981
L2C-prefetch_issued : 3246757
L2C-prefetch_useful : 1741
L2C-prefetch_useless : 19270
L2C-Avg_miss_latency : 257.088
L2C-Morteza_fill_l2_prefetches : 1221929

LLC TOTAL     ACCESS:     738872  HIT:     672664  MISS:      66208
LLC LOAD      ACCESS:      19598  HIT:       6003  MISS:      13595
LLC RFO       ACCESS:      30942  HIT:       4063  MISS:      26879
LLC PREFETCH  ACCESS:     653415  HIT:     627800  MISS:      25615
LLC WRITEBACK ACCESS:      34917  HIT:      34798  MISS:        119
LLC PREFETCH  REQUESTED:          0  ISSUED:          0  USEFUL:       4628  USELESS:      21681
LLC AVERAGE MISS LATENCY: 311.737 cycles
LLC

SHEET
LLC-total_access : 738872
LLC-total_hit : 672664
LLC-total_miss : 66208
LLC-load_access : 19598
LLC-load_hit : 6003
LLC-load_miss : 13595
LLC-rfo_access : 30942
LLC-rfo_hit : 4063
LLC-rfo_miss : 26879
LLC-prefetch_access : 653415
LLC-prefetch_hit : 627800
LLC-prefetch_miss : 25615
LLC-writeback_access : 34917
LLC-writeback_hit : 34798
LLC-writeback_miss : 119
LLC-prefetch_requested : 0
LLC-prefetch_issued : 0
LLC-prefetch_useful : 4628
LLC-prefetch_useless : 21681
LLC-Avg_miss_latency : 311.737
LLC-Morteza_fill_l2_prefetches : 619849

Major fault: 0 Minor fault: 1911



Printing Logs
statHeadFound: 1093888
statHeadMissing: 565561
statStreamBufferHit: 12963052
statPrefetchEntryFound: 8413945
statCompactorMatch: 11445798
statStreamTrackerLookup: 14622501
statRecord: 3176703
statGetPointer: 1659449
statEnqueuePrefetch: 25707796
statPrefetchQueueIsFull: 1075
StreamBufferHitRate: 0.886514
Regions' size: 2672
next_region_correct: 2306942
next_region_wrong: 867071
next_region_correct_prediction: 0.726822
statStreamBufferLookups: 1052820072
statL1iLookups: 205662368
statCompactorLookups: 526410036
morteza: start

SHEET
mana_table_access_counter : 11591705
hobp_table_access_counter : 27759589
sab_access_counter : 21376997
srq_access_counter : 16972372

morteza: end
CPU 0 L1D next line prefetcher final stats

DRAM Statistics
 CHANNEL 0
 RQ ROW_BUFFER_HIT:      28654  ROW_BUFFER_MISS:      37432
 DBUS_CONGESTED:      68247
 WQ ROW_BUFFER_HIT:       8722  ROW_BUFFER_MISS:      24157  FULL:          0

 AVG_CONGESTED_CYCLE: 6

CPU 0 Branch Prediction Accuracy: 99.7719% MPKI: 0.38824 Average ROB Occupancy at Mispredict: 123.922

Branch types
NOT_BRANCH: 41488836 82.9777%
BRANCH_DIRECT_JUMP: 449416 0.898832%
BRANCH_INDIRECT: 2330 0.00466%
BRANCH_CONDITIONAL: 5470005 10.94%
BRANCH_DIRECT_CALL: 1172178 2.34436%
BRANCH_INDIRECT_CALL: 122383 0.244766%
BRANCH_RETURN: 1294544 2.58909%
BRANCH_OTHER: 0 0%

