Initialize SIGNATURE TABLE
ST_SET: 1
ST_WAY: 256
ST_TAG_BIT: 16
ST_TAG_MASK: ffff

Initialize PATTERN TABLE
PT_SET: 512
PT_WAY: 4
SIG_DELTA_BIT: 7
C_SIG_BIT: 4
C_DELTA_BIT: 4

Initialize PREFETCH FILTER
FILTER_SET: 1024
MANA initialize 
tds: 2 tdm: 2
size MANA SINGLE: 15.5 KB
size MANA NULTIPLE: 0 KB
size HOBPT: 0.703125 KB
size SRQ: 0.14502 KB
size SABs: 0.290039 KB
size prefetch queue: 0.453125 KB
total: 17.0913 KB

*** ChampSim Multicore Out-of-Order Simulator ***

Warmup Instructions: 50000000
Simulation Instructions: 50000000
Number of CPUs: 1
LLC sets: 2048
LLC ways: 16
Off-chip DRAM Size: 4096 MB Channels: 1 Width: 64-bit Data Rate: 3200 MT/s

CPU 0 runs /home/mbaradaran/ChampSim/dpc3_traces/server_031.champsimtrace.xz
CPU 0 L1D next line prefetcher
Heartbeat CPU 0 instructions: 10000003 cycles: 3532255 heartbeat IPC: 2.83105 cumulative IPC: 2.83105 (Simulation time: 0 hr 1 min 27 sec) 
Heartbeat CPU 0 instructions: 20000002 cycles: 7064502 heartbeat IPC: 2.83106 cumulative IPC: 2.83106 (Simulation time: 0 hr 3 min 0 sec) 
Heartbeat CPU 0 instructions: 30000002 cycles: 10596979 heartbeat IPC: 2.83087 cumulative IPC: 2.831 (Simulation time: 0 hr 4 min 30 sec) 
Heartbeat CPU 0 instructions: 40000003 cycles: 14125373 heartbeat IPC: 2.83415 cumulative IPC: 2.83178 (Simulation time: 0 hr 6 min 3 sec) 
Heartbeat CPU 0 instructions: 50000000 cycles: 17655363 heartbeat IPC: 2.83287 cumulative IPC: 2.832 (Simulation time: 0 hr 7 min 36 sec) 

Warmup complete CPU 0 instructions: 50000004 cycles: 17655364 (Simulation time: 0 hr 7 min 36 sec) 

Heartbeat CPU 0 instructions: 60000001 cycles: 25504653 heartbeat IPC: 1.274 cumulative IPC: 1.274 (Simulation time: 0 hr 8 min 58 sec) 
Heartbeat CPU 0 instructions: 70000002 cycles: 33412147 heartbeat IPC: 1.26462 cumulative IPC: 1.26929 (Simulation time: 0 hr 10 min 21 sec) 
*** Reached end of trace for Core: 0 Repeating trace: /home/mbaradaran/ChampSim/dpc3_traces/server_031.champsimtrace.xz
Heartbeat CPU 0 instructions: 80000000 cycles: 41152188 heartbeat IPC: 1.29198 cumulative IPC: 1.27677 (Simulation time: 0 hr 11 min 49 sec) 
Heartbeat CPU 0 instructions: 90000003 cycles: 48945386 heartbeat IPC: 1.28317 cumulative IPC: 1.27836 (Simulation time: 0 hr 13 min 13 sec) 
Heartbeat CPU 0 instructions: 100000000 cycles: 56686058 heartbeat IPC: 1.29188 cumulative IPC: 1.28104 (Simulation time: 0 hr 14 min 45 sec) 
Finished CPU 0 instructions: 50000000 cycles: 39030699 cumulative IPC: 1.28104 (Simulation time: 0 hr 14 min 45 sec) 

ChampSim completed all CPUs

Region of Interest Statistics

CPU 0 cumulative IPC: 1.28104 instructions: 50000000 cycles: 39030699

SHEET
IPC : 1.28104

L1D TOTAL     ACCESS:   19932610  HIT:   18028079  MISS:    1904531
L1D LOAD      ACCESS:    6966474  HIT:    6094406  MISS:     872068
L1D RFO       ACCESS:    6335924  HIT:    6044377  MISS:     291547
L1D PREFETCH  ACCESS:    6630212  HIT:    5889296  MISS:     740916
L1D WRITEBACK ACCESS:          0  HIT:          0  MISS:          0
L1D PREFETCH  REQUESTED:    7027539  ISSUED:    6924437  USEFUL:     175237  USELESS:     565679
L1D AVERAGE MISS LATENCY: 22.264 cycles
L1D

SHEET
L1D-total_access : 19932610
L1D-total_hit : 18028079
L1D-total_miss : 1904531
L1D-load_access : 6966474
L1D-load_hit : 6094406
L1D-load_miss : 872068
L1D-rfo_access : 6335924
L1D-rfo_hit : 6044377
L1D-rfo_miss : 291547
L1D-prefetch_access : 6630212
L1D-prefetch_hit : 5889296
L1D-prefetch_miss : 740916
L1D-writeback_access : 0
L1D-writeback_hit : 0
L1D-writeback_miss : 0
L1D-prefetch_requested : 7027539
L1D-prefetch_issued : 6924437
L1D-prefetch_useful : 175237
L1D-prefetch_useless : 565679
L1D-Avg_miss_latency : 22.264
L1D-Morteza_fill_l2_prefetches : 0

L1I TOTAL     ACCESS:   19584092  HIT:   14565049  MISS:    5019043
L1I LOAD      ACCESS:    9454369  HIT:    8580562  MISS:     873807
L1I RFO       ACCESS:          0  HIT:          0  MISS:          0
L1I PREFETCH  ACCESS:   10129723  HIT:    5984487  MISS:    4145236
L1I WRITEBACK ACCESS:          0  HIT:          0  MISS:          0
L1I PREFETCH  REQUESTED:   11267515  ISSUED:   10984966  USEFUL:    2432483  USELESS:    1712700
L1I AVERAGE MISS LATENCY: 15.9626 cycles
L1I

SHEET
L1I-total_access : 19584092
L1I-total_hit : 14565049
L1I-total_miss : 5019043
L1I-load_access : 9454369
L1I-load_hit : 8580562
L1I-load_miss : 873807
L1I-rfo_access : 0
L1I-rfo_hit : 0
L1I-rfo_miss : 0
L1I-prefetch_access : 10129723
L1I-prefetch_hit : 5984487
L1I-prefetch_miss : 4145236
L1I-writeback_access : 0
L1I-writeback_hit : 0
L1I-writeback_miss : 0
L1I-prefetch_requested : 11267515
L1I-prefetch_issued : 10984966
L1I-prefetch_useful : 2432483
L1I-prefetch_useless : 1712700
L1I-Avg_miss_latency : 15.9626
L1I-Morteza_fill_l2_prefetches : 0

L2C TOTAL     ACCESS:    9665448  HIT:    9130299  MISS:     535149
L2C LOAD      ACCESS:    1490948  HIT:    1330310  MISS:     160638
L2C RFO       ACCESS:     289618  HIT:     248783  MISS:      40835
L2C PREFETCH  ACCESS:    7268182  HIT:    6936047  MISS:     332135
L2C WRITEBACK ACCESS:     616700  HIT:     615159  MISS:       1541
L2C PREFETCH  REQUESTED:    8403963  ISSUED:    8361306  USEFUL:      17024  USELESS:     314214
L2C AVERAGE MISS LATENCY: 46.4016 cycles
L2C

SHEET
L2C-total_access : 9665448
L2C-total_hit : 9130299
L2C-total_miss : 535149
L2C-load_access : 1490948
L2C-load_hit : 1330310
L2C-load_miss : 160638
L2C-rfo_access : 289618
L2C-rfo_hit : 248783
L2C-rfo_miss : 40835
L2C-prefetch_access : 7268182
L2C-prefetch_hit : 6936047
L2C-prefetch_miss : 332135
L2C-writeback_access : 616700
L2C-writeback_hit : 615159
L2C-writeback_miss : 1541
L2C-prefetch_requested : 8403963
L2C-prefetch_issued : 8361306
L2C-prefetch_useful : 17024
L2C-prefetch_useless : 314214
L2C-Avg_miss_latency : 46.4016
L2C-Morteza_fill_l2_prefetches : 2168840

LLC TOTAL     ACCESS:    3051146  HIT:    2964062  MISS:      87084
LLC LOAD      ACCESS:     160611  HIT:     141705  MISS:      18906
LLC RFO       ACCESS:      40800  HIT:      36491  MISS:       4309
LLC PREFETCH  ACCESS:    2774357  HIT:    2711123  MISS:      63234
LLC WRITEBACK ACCESS:      75378  HIT:      74743  MISS:        635
LLC PREFETCH  REQUESTED:          0  ISSUED:          0  USEFUL:       3087  USELESS:      59164
LLC AVERAGE MISS LATENCY: 160.903 cycles
LLC

SHEET
LLC-total_access : 3051146
LLC-total_hit : 2964062
LLC-total_miss : 87084
LLC-load_access : 160611
LLC-load_hit : 141705
LLC-load_miss : 18906
LLC-rfo_access : 40800
LLC-rfo_hit : 36491
LLC-rfo_miss : 4309
LLC-prefetch_access : 2774357
LLC-prefetch_hit : 2711123
LLC-prefetch_miss : 63234
LLC-writeback_access : 75378
LLC-writeback_hit : 74743
LLC-writeback_miss : 635
LLC-prefetch_requested : 0
LLC-prefetch_issued : 0
LLC-prefetch_useful : 3087
LLC-prefetch_useless : 59164
LLC-Avg_miss_latency : 160.903
LLC-Morteza_fill_l2_prefetches : 2413671

Major fault: 0 Minor fault: 6041



Printing Logs
statHeadFound: 1059006
statHeadMissing: 1063366
statStreamBufferHit: 12266933
statPrefetchEntryFound: 7385466
statCompactorMatch: 11625014
statStreamTrackerLookup: 14389305
statRecord: 2764291
statGetPointer: 2122372
statEnqueuePrefetch: 21815304
statPrefetchQueueIsFull: 100441
StreamBufferHitRate: 0.852504
Regions' size: 1994
next_region_correct: 1959058
next_region_wrong: 803221
next_region_correct_prediction: 0.709218
statStreamBufferLookups: 1036029960
statL1iLookups: 174522432
statCompactorLookups: 518014980
morteza: start

SHEET
mana_table_access_counter : 10250180
hobp_table_access_counter : 27032559
sab_access_counter : 19652399
srq_access_counter : 15838027

morteza: end
CPU 0 L1D next line prefetcher final stats

DRAM Statistics
 CHANNEL 0
 RQ ROW_BUFFER_HIT:      23969  ROW_BUFFER_MISS:      62476
 DBUS_CONGESTED:      39469
 WQ ROW_BUFFER_HIT:        809  ROW_BUFFER_MISS:       5385  FULL:          0

 AVG_CONGESTED_CYCLE: 5

CPU 0 Branch Prediction Accuracy: 99.6894% MPKI: 0.58048 Average ROB Occupancy at Mispredict: 128.758

Branch types
NOT_BRANCH: 40655574 81.3111%
BRANCH_DIRECT_JUMP: 546483 1.09297%
BRANCH_INDIRECT: 172433 0.344866%
BRANCH_CONDITIONAL: 6207570 12.4151%
BRANCH_DIRECT_CALL: 1018498 2.037%
BRANCH_INDIRECT_CALL: 190373 0.380746%
BRANCH_RETURN: 1208855 2.41771%
BRANCH_OTHER: 0 0%

