Initialize SIGNATURE TABLE
ST_SET: 1
ST_WAY: 256
ST_TAG_BIT: 16
ST_TAG_MASK: ffff

Initialize PATTERN TABLE
PT_SET: 512
PT_WAY: 4
SIG_DELTA_BIT: 7
C_SIG_BIT: 4
C_DELTA_BIT: 4

Initialize PREFETCH FILTER
FILTER_SET: 1024
MANA initialize 
tds: 2 tdm: 2
size MANA SINGLE: 15.5 KB
size MANA NULTIPLE: 0 KB
size HOBPT: 0.703125 KB
size SRQ: 0.14502 KB
size SABs: 0.290039 KB
size prefetch queue: 0.453125 KB
total: 17.0913 KB

*** ChampSim Multicore Out-of-Order Simulator ***

Warmup Instructions: 50000000
Simulation Instructions: 50000000
Number of CPUs: 1
LLC sets: 2048
LLC ways: 16
Off-chip DRAM Size: 4096 MB Channels: 1 Width: 64-bit Data Rate: 3200 MT/s

CPU 0 runs /home/mbaradaran/ChampSim/dpc3_traces/server_033.champsimtrace.xz
CPU 0 L1D next line prefetcher
Heartbeat CPU 0 instructions: 10000001 cycles: 3343239 heartbeat IPC: 2.99111 cumulative IPC: 2.99111 (Simulation time: 0 hr 1 min 24 sec) 
Heartbeat CPU 0 instructions: 20000002 cycles: 6685002 heartbeat IPC: 2.99243 cumulative IPC: 2.99177 (Simulation time: 0 hr 2 min 46 sec) 
Heartbeat CPU 0 instructions: 30000001 cycles: 10016281 heartbeat IPC: 3.00185 cumulative IPC: 2.99512 (Simulation time: 0 hr 4 min 17 sec) 
Heartbeat CPU 0 instructions: 40000000 cycles: 13356391 heartbeat IPC: 2.99391 cumulative IPC: 2.99482 (Simulation time: 0 hr 5 min 40 sec) 
Heartbeat CPU 0 instructions: 50000000 cycles: 16695939 heartbeat IPC: 2.99442 cumulative IPC: 2.99474 (Simulation time: 0 hr 7 min 5 sec) 

Warmup complete CPU 0 instructions: 50000004 cycles: 16695940 (Simulation time: 0 hr 7 min 5 sec) 

Heartbeat CPU 0 instructions: 60000000 cycles: 23391754 heartbeat IPC: 1.49347 cumulative IPC: 1.49347 (Simulation time: 0 hr 8 min 24 sec) 
Heartbeat CPU 0 instructions: 70000000 cycles: 30035002 heartbeat IPC: 1.50529 cumulative IPC: 1.49936 (Simulation time: 0 hr 9 min 49 sec) 
Heartbeat CPU 0 instructions: 80000000 cycles: 37505550 heartbeat IPC: 1.33859 cumulative IPC: 1.44164 (Simulation time: 0 hr 11 min 10 sec) 
Heartbeat CPU 0 instructions: 90000003 cycles: 44265226 heartbeat IPC: 1.47936 cumulative IPC: 1.45089 (Simulation time: 0 hr 12 min 28 sec) 
Heartbeat CPU 0 instructions: 100000003 cycles: 50977956 heartbeat IPC: 1.48971 cumulative IPC: 1.45849 (Simulation time: 0 hr 13 min 48 sec) 
Finished CPU 0 instructions: 50000003 cycles: 34282017 cumulative IPC: 1.45849 (Simulation time: 0 hr 13 min 48 sec) 

ChampSim completed all CPUs

Region of Interest Statistics

CPU 0 cumulative IPC: 1.45849 instructions: 50000003 cycles: 34282017

SHEET
IPC : 1.45849

L1D TOTAL     ACCESS:   18486526  HIT:   17004116  MISS:    1482410
L1D LOAD      ACCESS:    6263299  HIT:    5581102  MISS:     682197
L1D RFO       ACCESS:    6168537  HIT:    6018345  MISS:     150192
L1D PREFETCH  ACCESS:    6054690  HIT:    5404669  MISS:     650021
L1D WRITEBACK ACCESS:          0  HIT:          0  MISS:          0
L1D PREFETCH  REQUESTED:    6305636  ISSUED:    6192623  USEFUL:     141690  USELESS:     508338
L1D AVERAGE MISS LATENCY: 23.312 cycles
L1D

SHEET
L1D-total_access : 18486526
L1D-total_hit : 17004116
L1D-total_miss : 1482410
L1D-load_access : 6263299
L1D-load_hit : 5581102
L1D-load_miss : 682197
L1D-rfo_access : 6168537
L1D-rfo_hit : 6018345
L1D-rfo_miss : 150192
L1D-prefetch_access : 6054690
L1D-prefetch_hit : 5404669
L1D-prefetch_miss : 650021
L1D-writeback_access : 0
L1D-writeback_hit : 0
L1D-writeback_miss : 0
L1D-prefetch_requested : 6305636
L1D-prefetch_issued : 6192623
L1D-prefetch_useful : 141690
L1D-prefetch_useless : 508338
L1D-Avg_miss_latency : 23.312
L1D-Morteza_fill_l2_prefetches : 0

L1I TOTAL     ACCESS:   19091488  HIT:   14393476  MISS:    4698012
L1I LOAD      ACCESS:    9565529  HIT:    8904585  MISS:     660944
L1I RFO       ACCESS:          0  HIT:          0  MISS:          0
L1I PREFETCH  ACCESS:    9525959  HIT:    5488891  MISS:    4037068
L1I WRITEBACK ACCESS:          0  HIT:          0  MISS:          0
L1I PREFETCH  REQUESTED:   10494030  ISSUED:   10309416  USEFUL:    2847963  USELESS:    1189095
L1I AVERAGE MISS LATENCY: 14.7797 cycles
L1I

SHEET
L1I-total_access : 19091488
L1I-total_hit : 14393476
L1I-total_miss : 4698012
L1I-load_access : 9565529
L1I-load_hit : 8904585
L1I-load_miss : 660944
L1I-rfo_access : 0
L1I-rfo_hit : 0
L1I-rfo_miss : 0
L1I-prefetch_access : 9525959
L1I-prefetch_hit : 5488891
L1I-prefetch_miss : 4037068
L1I-writeback_access : 0
L1I-writeback_hit : 0
L1I-writeback_miss : 0
L1I-prefetch_requested : 10494030
L1I-prefetch_issued : 10309416
L1I-prefetch_useful : 2847963
L1I-prefetch_useless : 1189095
L1I-Avg_miss_latency : 14.7797
L1I-Morteza_fill_l2_prefetches : 0

L2C TOTAL     ACCESS:    8390076  HIT:    8110315  MISS:     279761
L2C LOAD      ACCESS:    1180727  HIT:    1059891  MISS:     120836
L2C RFO       ACCESS:     148862  HIT:     129193  MISS:      19669
L2C PREFETCH  ACCESS:    6693946  HIT:    6556039  MISS:     137907
L2C WRITEBACK ACCESS:     366541  HIT:     365192  MISS:       1349
L2C PREFETCH  REQUESTED:    7180743  ISSUED:    7157793  USEFUL:      10645  USELESS:     126616
L2C AVERAGE MISS LATENCY: 49.4422 cycles
L2C

SHEET
L2C-total_access : 8390076
L2C-total_hit : 8110315
L2C-total_miss : 279761
L2C-load_access : 1180727
L2C-load_hit : 1059891
L2C-load_miss : 120836
L2C-rfo_access : 148862
L2C-rfo_hit : 129193
L2C-rfo_miss : 19669
L2C-prefetch_access : 6693946
L2C-prefetch_hit : 6556039
L2C-prefetch_miss : 137907
L2C-writeback_access : 366541
L2C-writeback_hit : 365192
L2C-writeback_miss : 1349
L2C-prefetch_requested : 7180743
L2C-prefetch_issued : 7157793
L2C-prefetch_useful : 10645
L2C-prefetch_useless : 126616
L2C-Avg_miss_latency : 49.4422
L2C-Morteza_fill_l2_prefetches : 1864810

LLC TOTAL     ACCESS:    2095996  HIT:    2044332  MISS:      51664
LLC LOAD      ACCESS:     120795  HIT:     107857  MISS:      12938
LLC RFO       ACCESS:      19669  HIT:      17087  MISS:       2582
LLC PREFETCH  ACCESS:    1852011  HIT:    1816087  MISS:      35924
LLC WRITEBACK ACCESS:     103521  HIT:     103301  MISS:        220
LLC PREFETCH  REQUESTED:          0  ISSUED:          0  USEFUL:       6362  USELESS:      28832
LLC AVERAGE MISS LATENCY: 171.733 cycles
LLC

SHEET
LLC-total_access : 2095996
LLC-total_hit : 2044332
LLC-total_miss : 51664
LLC-load_access : 120795
LLC-load_hit : 107857
LLC-load_miss : 12938
LLC-rfo_access : 19669
LLC-rfo_hit : 17087
LLC-rfo_miss : 2582
LLC-prefetch_access : 1852011
LLC-prefetch_hit : 1816087
LLC-prefetch_miss : 35924
LLC-writeback_access : 103521
LLC-writeback_hit : 103301
LLC-writeback_miss : 220
LLC-prefetch_requested : 0
LLC-prefetch_issued : 0
LLC-prefetch_useful : 6362
LLC-prefetch_useless : 28832
LLC-Avg_miss_latency : 171.733
LLC-Morteza_fill_l2_prefetches : 1697255

Major fault: 0 Minor fault: 2482



Printing Logs
statHeadFound: 796887
statHeadMissing: 475358
statStreamBufferHit: 13845126
statPrefetchEntryFound: 6786504
statCompactorMatch: 12065121
statStreamTrackerLookup: 15117371
statRecord: 3052250
statGetPointer: 1272245
statEnqueuePrefetch: 20488682
statPrefetchQueueIsFull: 8106
StreamBufferHitRate: 0.915842
Regions' size: 1387
next_region_correct: 2359654
next_region_wrong: 691191
next_region_correct_prediction: 0.773443
statStreamBufferLookups: 1088450712
statL1iLookups: 163909456
statCompactorLookups: 544225356
morteza: start

SHEET
mana_table_access_counter : 9846842
hobp_table_access_counter : 24092548
sab_access_counter : 20631630
srq_access_counter : 16673976

morteza: end
CPU 0 L1D next line prefetcher final stats

DRAM Statistics
 CHANNEL 0
 RQ ROW_BUFFER_HIT:       9039  ROW_BUFFER_MISS:      42402
 DBUS_CONGESTED:      23042
 WQ ROW_BUFFER_HIT:       3224  ROW_BUFFER_MISS:      15314  FULL:          0

 AVG_CONGESTED_CYCLE: 5

CPU 0 Branch Prediction Accuracy: 99.9029% MPKI: 0.19006 Average ROB Occupancy at Mispredict: 176.385

Branch types
NOT_BRANCH: 40217105 80.4342%
BRANCH_DIRECT_JUMP: 774599 1.5492%
BRANCH_INDIRECT: 108806 0.217612%
BRANCH_CONDITIONAL: 6379331 12.7587%
BRANCH_DIRECT_CALL: 1048809 2.09762%
BRANCH_INDIRECT_CALL: 211109 0.422218%
BRANCH_RETURN: 1259925 2.51985%
BRANCH_OTHER: 0 0%

