Initialize SIGNATURE TABLE
ST_SET: 1
ST_WAY: 256
ST_TAG_BIT: 16
ST_TAG_MASK: ffff

Initialize PATTERN TABLE
PT_SET: 512
PT_WAY: 4
SIG_DELTA_BIT: 7
C_SIG_BIT: 4
C_DELTA_BIT: 4

Initialize PREFETCH FILTER
FILTER_SET: 1024
MANA initialize 
tds: 2 tdm: 2
size MANA SINGLE: 15.5 KB
size MANA NULTIPLE: 0 KB
size HOBPT: 0.703125 KB
size SRQ: 0.14502 KB
size SABs: 0.290039 KB
size prefetch queue: 0.453125 KB
total: 17.0913 KB

*** ChampSim Multicore Out-of-Order Simulator ***

Warmup Instructions: 50000000
Simulation Instructions: 50000000
Number of CPUs: 1
LLC sets: 2048
LLC ways: 16
Off-chip DRAM Size: 4096 MB Channels: 1 Width: 64-bit Data Rate: 3200 MT/s

CPU 0 runs /home/mbaradaran/ChampSim/dpc3_traces/server_023.champsimtrace.xz
CPU 0 L1D next line prefetcher
Heartbeat CPU 0 instructions: 10000001 cycles: 3509447 heartbeat IPC: 2.84945 cumulative IPC: 2.84945 (Simulation time: 0 hr 1 min 26 sec) 
Heartbeat CPU 0 instructions: 20000000 cycles: 7018619 heartbeat IPC: 2.84967 cumulative IPC: 2.84956 (Simulation time: 0 hr 2 min 52 sec) 
Heartbeat CPU 0 instructions: 30000001 cycles: 10520809 heartbeat IPC: 2.85536 cumulative IPC: 2.85149 (Simulation time: 0 hr 4 min 13 sec) 
Heartbeat CPU 0 instructions: 40000003 cycles: 14028733 heartbeat IPC: 2.85069 cumulative IPC: 2.85129 (Simulation time: 0 hr 5 min 40 sec) 
Heartbeat CPU 0 instructions: 50000001 cycles: 17538558 heartbeat IPC: 2.84914 cumulative IPC: 2.85086 (Simulation time: 0 hr 6 min 59 sec) 

Warmup complete CPU 0 instructions: 50000001 cycles: 17538558 (Simulation time: 0 hr 6 min 59 sec) 

Heartbeat CPU 0 instructions: 60000002 cycles: 24733125 heartbeat IPC: 1.38994 cumulative IPC: 1.38994 (Simulation time: 0 hr 8 min 16 sec) 
Heartbeat CPU 0 instructions: 70000002 cycles: 32157159 heartbeat IPC: 1.34698 cumulative IPC: 1.36812 (Simulation time: 0 hr 9 min 37 sec) 
Heartbeat CPU 0 instructions: 80000000 cycles: 39455193 heartbeat IPC: 1.37023 cumulative IPC: 1.36882 (Simulation time: 0 hr 10 min 57 sec) 
Heartbeat CPU 0 instructions: 90000000 cycles: 46740458 heartbeat IPC: 1.37263 cumulative IPC: 1.36977 (Simulation time: 0 hr 12 min 11 sec) 
Heartbeat CPU 0 instructions: 100000001 cycles: 54029847 heartbeat IPC: 1.37186 cumulative IPC: 1.37019 (Simulation time: 0 hr 13 min 30 sec) 
Finished CPU 0 instructions: 50000000 cycles: 36491289 cumulative IPC: 1.37019 (Simulation time: 0 hr 13 min 30 sec) 

ChampSim completed all CPUs

Region of Interest Statistics

CPU 0 cumulative IPC: 1.37019 instructions: 50000000 cycles: 36491289

SHEET
IPC : 1.37019

L1D TOTAL     ACCESS:   19873257  HIT:   18406035  MISS:    1467222
L1D LOAD      ACCESS:    7097785  HIT:    6438141  MISS:     659644
L1D RFO       ACCESS:    5995690  HIT:    5734232  MISS:     261458
L1D PREFETCH  ACCESS:    6779782  HIT:    6233662  MISS:     546120
L1D WRITEBACK ACCESS:          0  HIT:          0  MISS:          0
L1D PREFETCH  REQUESTED:    7148326  ISSUED:    7030412  USEFUL:     131327  USELESS:     414799
L1D AVERAGE MISS LATENCY: 24.042 cycles
L1D

SHEET
L1D-total_access : 19873257
L1D-total_hit : 18406035
L1D-total_miss : 1467222
L1D-load_access : 7097785
L1D-load_hit : 6438141
L1D-load_miss : 659644
L1D-rfo_access : 5995690
L1D-rfo_hit : 5734232
L1D-rfo_miss : 261458
L1D-prefetch_access : 6779782
L1D-prefetch_hit : 6233662
L1D-prefetch_miss : 546120
L1D-writeback_access : 0
L1D-writeback_hit : 0
L1D-writeback_miss : 0
L1D-prefetch_requested : 7148326
L1D-prefetch_issued : 7030412
L1D-prefetch_useful : 131327
L1D-prefetch_useless : 414799
L1D-Avg_miss_latency : 24.042
L1D-Morteza_fill_l2_prefetches : 0

L1I TOTAL     ACCESS:   18666442  HIT:   14450005  MISS:    4216437
L1I LOAD      ACCESS:    9266022  HIT:    8522076  MISS:     743946
L1I RFO       ACCESS:          0  HIT:          0  MISS:          0
L1I PREFETCH  ACCESS:    9400420  HIT:    5927929  MISS:    3472491
L1I WRITEBACK ACCESS:          0  HIT:          0  MISS:          0
L1I PREFETCH  REQUESTED:   10459972  ISSUED:   10187857  USEFUL:    1912070  USELESS:    1560427
L1I AVERAGE MISS LATENCY: 16.3692 cycles
L1I

SHEET
L1I-total_access : 18666442
L1I-total_hit : 14450005
L1I-total_miss : 4216437
L1I-load_access : 9266022
L1I-load_hit : 8522076
L1I-load_miss : 743946
L1I-rfo_access : 0
L1I-rfo_hit : 0
L1I-rfo_miss : 0
L1I-prefetch_access : 9400420
L1I-prefetch_hit : 5927929
L1I-prefetch_miss : 3472491
L1I-writeback_access : 0
L1I-writeback_hit : 0
L1I-writeback_miss : 0
L1I-prefetch_requested : 10459972
L1I-prefetch_issued : 10187857
L1I-prefetch_useful : 1912070
L1I-prefetch_useless : 1560427
L1I-Avg_miss_latency : 16.3692
L1I-Morteza_fill_l2_prefetches : 0

L2C TOTAL     ACCESS:    7616774  HIT:    6995975  MISS:     620799
L2C LOAD      ACCESS:    1179025  HIT:    1005751  MISS:     173274
L2C RFO       ACCESS:     259356  HIT:     170417  MISS:      88939
L2C PREFETCH  ACCESS:    5679151  HIT:    5323338  MISS:     355813
L2C WRITEBACK ACCESS:     499242  HIT:     496469  MISS:       2773
L2C PREFETCH  REQUESTED:    5701632  ISSUED:    5695995  USEFUL:      34157  USELESS:     320886
L2C AVERAGE MISS LATENCY: 42.9396 cycles
L2C

SHEET
L2C-total_access : 7616774
L2C-total_hit : 6995975
L2C-total_miss : 620799
L2C-load_access : 1179025
L2C-load_hit : 1005751
L2C-load_miss : 173274
L2C-rfo_access : 259356
L2C-rfo_hit : 170417
L2C-rfo_miss : 88939
L2C-prefetch_access : 5679151
L2C-prefetch_hit : 5323338
L2C-prefetch_miss : 355813
L2C-writeback_access : 499242
L2C-writeback_hit : 496469
L2C-writeback_miss : 2773
L2C-prefetch_requested : 5701632
L2C-prefetch_issued : 5695995
L2C-prefetch_useful : 34157
L2C-prefetch_useless : 320886
L2C-Avg_miss_latency : 42.9396
L2C-Morteza_fill_l2_prefetches : 1473089

LLC TOTAL     ACCESS:    2179264  HIT:    2132064  MISS:      47200
LLC LOAD      ACCESS:     173057  HIT:     166678  MISS:       6379
LLC RFO       ACCESS:      88939  HIT:      71045  MISS:      17894
LLC PREFETCH  ACCESS:    1777932  HIT:    1755249  MISS:      22683
LLC WRITEBACK ACCESS:     139336  HIT:     139092  MISS:        244
LLC PREFETCH  REQUESTED:          0  ISSUED:          0  USEFUL:       2448  USELESS:      20261
LLC AVERAGE MISS LATENCY: 182.33 cycles
LLC

SHEET
LLC-total_access : 2179264
LLC-total_hit : 2132064
LLC-total_miss : 47200
LLC-load_access : 173057
LLC-load_hit : 166678
LLC-load_miss : 6379
LLC-rfo_access : 88939
LLC-rfo_hit : 71045
LLC-rfo_miss : 17894
LLC-prefetch_access : 1777932
LLC-prefetch_hit : 1755249
LLC-prefetch_miss : 22683
LLC-writeback_access : 139336
LLC-writeback_hit : 139092
LLC-writeback_miss : 244
LLC-prefetch_requested : 0
LLC-prefetch_issued : 0
LLC-prefetch_useful : 2448
LLC-prefetch_useless : 20261
LLC-Avg_miss_latency : 182.33
LLC-Morteza_fill_l2_prefetches : 1426104

Major fault: 0 Minor fault: 2766



Printing Logs
statHeadFound: 973834
statHeadMissing: 1132633
statStreamBufferHit: 12061811
statPrefetchEntryFound: 6822523
statCompactorMatch: 11832080
statStreamTrackerLookup: 14168278
statRecord: 2336198
statGetPointer: 2106467
statEnqueuePrefetch: 20515766
statPrefetchQueueIsFull: 51792
StreamBufferHitRate: 0.851325
Regions' size: 2765
next_region_correct: 1585016
next_region_wrong: 748399
next_region_correct_prediction: 0.679269
statStreamBufferLookups: 1020116016
statL1iLookups: 164126128
statCompactorLookups: 510058008
morteza: start

SHEET
mana_table_access_counter : 9210495
hobp_table_access_counter : 24644975
sab_access_counter : 18884334
srq_access_counter : 15173785

morteza: end
CPU 0 L1D next line prefetcher final stats

DRAM Statistics
 CHANNEL 0
 RQ ROW_BUFFER_HIT:      14738  ROW_BUFFER_MISS:      32207
 DBUS_CONGESTED:      30830
 WQ ROW_BUFFER_HIT:       2446  ROW_BUFFER_MISS:      18863  FULL:          0

 AVG_CONGESTED_CYCLE: 6

CPU 0 Branch Prediction Accuracy: 99.6798% MPKI: 0.58608 Average ROB Occupancy at Mispredict: 121.666

Branch types
NOT_BRANCH: 40848124 81.6962%
BRANCH_DIRECT_JUMP: 548369 1.09674%
BRANCH_INDIRECT: 189802 0.379604%
BRANCH_CONDITIONAL: 6372726 12.7455%
BRANCH_DIRECT_CALL: 862206 1.72441%
BRANCH_INDIRECT_CALL: 158147 0.316294%
BRANCH_RETURN: 1020342 2.04068%
BRANCH_OTHER: 0 0%

