Initialize SIGNATURE TABLE
ST_SET: 1
ST_WAY: 256
ST_TAG_BIT: 16
ST_TAG_MASK: ffff

Initialize PATTERN TABLE
PT_SET: 512
PT_WAY: 4
SIG_DELTA_BIT: 7
C_SIG_BIT: 4
C_DELTA_BIT: 4

Initialize PREFETCH FILTER
FILTER_SET: 1024
MANA initialize 
tds: 2 tdm: 2
size MANA SINGLE: 15.5 KB
size MANA NULTIPLE: 0 KB
size HOBPT: 0.703125 KB
size SRQ: 0.14502 KB
size SABs: 0.290039 KB
size prefetch queue: 0.453125 KB
total: 17.0913 KB

*** ChampSim Multicore Out-of-Order Simulator ***

Warmup Instructions: 50000000
Simulation Instructions: 50000000
Number of CPUs: 1
LLC sets: 2048
LLC ways: 16
Off-chip DRAM Size: 4096 MB Channels: 1 Width: 64-bit Data Rate: 3200 MT/s

CPU 0 runs /home/mbaradaran/ChampSim/dpc3_traces/server_019.champsimtrace.xz
CPU 0 L1D next line prefetcher
Heartbeat CPU 0 instructions: 10000002 cycles: 3625197 heartbeat IPC: 2.75847 cumulative IPC: 2.75847 (Simulation time: 0 hr 1 min 25 sec) 
Heartbeat CPU 0 instructions: 20000003 cycles: 7251186 heartbeat IPC: 2.75787 cumulative IPC: 2.75817 (Simulation time: 0 hr 2 min 49 sec) 
Heartbeat CPU 0 instructions: 30000002 cycles: 10876396 heartbeat IPC: 2.75846 cumulative IPC: 2.75827 (Simulation time: 0 hr 4 min 16 sec) 
Heartbeat CPU 0 instructions: 40000002 cycles: 14513272 heartbeat IPC: 2.74961 cumulative IPC: 2.7561 (Simulation time: 0 hr 5 min 49 sec) 
Heartbeat CPU 0 instructions: 50000001 cycles: 18138675 heartbeat IPC: 2.75831 cumulative IPC: 2.75654 (Simulation time: 0 hr 7 min 23 sec) 

Warmup complete CPU 0 instructions: 50000001 cycles: 18138675 (Simulation time: 0 hr 7 min 23 sec) 

Heartbeat CPU 0 instructions: 60000000 cycles: 37847676 heartbeat IPC: 0.507382 cumulative IPC: 0.507382 (Simulation time: 0 hr 9 min 30 sec) 
Heartbeat CPU 0 instructions: 70000002 cycles: 61259466 heartbeat IPC: 0.427135 cumulative IPC: 0.463813 (Simulation time: 0 hr 11 min 26 sec) 
Heartbeat CPU 0 instructions: 80000001 cycles: 81693149 heartbeat IPC: 0.489388 cumulative IPC: 0.472036 (Simulation time: 0 hr 13 min 20 sec) 
Heartbeat CPU 0 instructions: 90000002 cycles: 99119556 heartbeat IPC: 0.573842 cumulative IPC: 0.493944 (Simulation time: 0 hr 15 min 19 sec) 
Heartbeat CPU 0 instructions: 100000002 cycles: 116498358 heartbeat IPC: 0.575414 cumulative IPC: 0.508338 (Simulation time: 0 hr 17 min 11 sec) 
Finished CPU 0 instructions: 50000001 cycles: 98359683 cumulative IPC: 0.508338 (Simulation time: 0 hr 17 min 11 sec) 

ChampSim completed all CPUs

Region of Interest Statistics

CPU 0 cumulative IPC: 0.508338 instructions: 50000001 cycles: 98359683

SHEET
IPC : 0.508338

L1D TOTAL     ACCESS:   18345207  HIT:   16121614  MISS:    2223593
L1D LOAD      ACCESS:    6996210  HIT:    6244476  MISS:     751734
L1D RFO       ACCESS:    5512585  HIT:    4610456  MISS:     902129
L1D PREFETCH  ACCESS:    5836412  HIT:    5266682  MISS:     569730
L1D WRITEBACK ACCESS:          0  HIT:          0  MISS:          0
L1D PREFETCH  REQUESTED:    7035880  ISSUED:    6849218  USEFUL:     200556  USELESS:     369082
L1D AVERAGE MISS LATENCY: 184.387 cycles
L1D

SHEET
L1D-total_access : 18345207
L1D-total_hit : 16121614
L1D-total_miss : 2223593
L1D-load_access : 6996210
L1D-load_hit : 6244476
L1D-load_miss : 751734
L1D-rfo_access : 5512585
L1D-rfo_hit : 4610456
L1D-rfo_miss : 902129
L1D-prefetch_access : 5836412
L1D-prefetch_hit : 5266682
L1D-prefetch_miss : 569730
L1D-writeback_access : 0
L1D-writeback_hit : 0
L1D-writeback_miss : 0
L1D-prefetch_requested : 7035880
L1D-prefetch_issued : 6849218
L1D-prefetch_useful : 200556
L1D-prefetch_useless : 369082
L1D-Avg_miss_latency : 184.387
L1D-Morteza_fill_l2_prefetches : 0

L1I TOTAL     ACCESS:   16192400  HIT:   13820564  MISS:    2371836
L1I LOAD      ACCESS:    9820729  HIT:    9580626  MISS:     240103
L1I RFO       ACCESS:          0  HIT:          0  MISS:          0
L1I PREFETCH  ACCESS:    6371671  HIT:    4239938  MISS:    2131733
L1I WRITEBACK ACCESS:          0  HIT:          0  MISS:          0
L1I PREFETCH  REQUESTED:    6686684  ISSUED:    6631905  USEFUL:    1870441  USELESS:     261259
L1I AVERAGE MISS LATENCY: 18.3357 cycles
L1I

SHEET
L1I-total_access : 16192400
L1I-total_hit : 13820564
L1I-total_miss : 2371836
L1I-load_access : 9820729
L1I-load_hit : 9580626
L1I-load_miss : 240103
L1I-rfo_access : 0
L1I-rfo_hit : 0
L1I-rfo_miss : 0
L1I-prefetch_access : 6371671
L1I-prefetch_hit : 4239938
L1I-prefetch_miss : 2131733
L1I-writeback_access : 0
L1I-writeback_hit : 0
L1I-writeback_miss : 0
L1I-prefetch_requested : 6686684
L1I-prefetch_issued : 6631905
L1I-prefetch_useful : 1870441
L1I-prefetch_useless : 261259
L1I-Avg_miss_latency : 18.3357
L1I-Morteza_fill_l2_prefetches : 0

L2C TOTAL     ACCESS:    6820834  HIT:    4933766  MISS:    1887068
L2C LOAD      ACCESS:     724535  HIT:     384020  MISS:     340515
L2C RFO       ACCESS:     901524  HIT:      18319  MISS:     883205
L2C PREFETCH  ACCESS:    4020108  HIT:    3359042  MISS:     661066
L2C WRITEBACK ACCESS:    1174667  HIT:    1172385  MISS:       2282
L2C PREFETCH  REQUESTED:    4119685  ISSUED:    4116654  USEFUL:      26181  USELESS:     633505
L2C AVERAGE MISS LATENCY: 220.199 cycles
L2C

SHEET
L2C-total_access : 6820834
L2C-total_hit : 4933766
L2C-total_miss : 1887068
L2C-load_access : 724535
L2C-load_hit : 384020
L2C-load_miss : 340515
L2C-rfo_access : 901524
L2C-rfo_hit : 18319
L2C-rfo_miss : 883205
L2C-prefetch_access : 4020108
L2C-prefetch_hit : 3359042
L2C-prefetch_miss : 661066
L2C-writeback_access : 1174667
L2C-writeback_hit : 1172385
L2C-writeback_miss : 2282
L2C-prefetch_requested : 4119685
L2C-prefetch_issued : 4116654
L2C-prefetch_useful : 26181
L2C-prefetch_useless : 633505
L2C-Avg_miss_latency : 220.199
L2C-Morteza_fill_l2_prefetches : 1057677

LLC TOTAL     ACCESS:    4198553  HIT:    2570652  MISS:    1627901
LLC LOAD      ACCESS:     340416  HIT:     174554  MISS:     165862
LLC RFO       ACCESS:     883199  HIT:     115359  MISS:     767840
LLC PREFETCH  ACCESS:    1864563  HIT:    1172764  MISS:     691799
LLC WRITEBACK ACCESS:    1110375  HIT:    1107975  MISS:       2400
LLC PREFETCH  REQUESTED:          0  ISSUED:          0  USEFUL:      54337  USELESS:     636623
LLC AVERAGE MISS LATENCY: 273.316 cycles
LLC

SHEET
LLC-total_access : 4198553
LLC-total_hit : 2570652
LLC-total_miss : 1627901
LLC-load_access : 340416
LLC-load_hit : 174554
LLC-load_miss : 165862
LLC-rfo_access : 883199
LLC-rfo_hit : 115359
LLC-rfo_miss : 767840
LLC-prefetch_access : 1864563
LLC-prefetch_hit : 1172764
LLC-prefetch_miss : 691799
LLC-writeback_access : 1110375
LLC-writeback_hit : 1107975
LLC-writeback_miss : 2400
LLC-prefetch_requested : 0
LLC-prefetch_issued : 0
LLC-prefetch_useful : 54337
LLC-prefetch_useless : 636623
LLC-Avg_miss_latency : 273.316
LLC-Morteza_fill_l2_prefetches : 870568

Major fault: 0 Minor fault: 25691



Printing Logs
statHeadFound: 472364
statHeadMissing: 1156716
statStreamBufferHit: 11612442
statPrefetchEntryFound: 4541402
statCompactorMatch: 10999060
statStreamTrackerLookup: 13241522
statRecord: 2242462
statGetPointer: 1629080
statEnqueuePrefetch: 14224350
statPrefetchQueueIsFull: 244
StreamBufferHitRate: 0.876972
Regions' size: 1372
next_region_correct: 1896809
next_region_wrong: 344263
next_region_correct_prediction: 0.846385
statStreamBufferLookups: 953389584
statL1iLookups: 113794800
statCompactorLookups: 476694792
morteza: start

SHEET
mana_table_access_counter : 6784090
hobp_table_access_counter : 20027775
sab_access_counter : 16153844
srq_access_counter : 14419576

morteza: end
CPU 0 L1D next line prefetcher final stats

DRAM Statistics
 CHANNEL 0
 RQ ROW_BUFFER_HIT:     398639  ROW_BUFFER_MISS:    1226594
 DBUS_CONGESTED:    1615324
 WQ ROW_BUFFER_HIT:     257435  ROW_BUFFER_MISS:     678989  FULL:          0

 AVG_CONGESTED_CYCLE: 6

CPU 0 Branch Prediction Accuracy: 99.2186% MPKI: 1.32192 Average ROB Occupancy at Mispredict: 177.483

Branch types
NOT_BRANCH: 41540785 83.0816%
BRANCH_DIRECT_JUMP: 462384 0.924768%
BRANCH_INDIRECT: 45460 0.09092%
BRANCH_CONDITIONAL: 6209281 12.4186%
BRANCH_DIRECT_CALL: 666241 1.33248%
BRANCH_INDIRECT_CALL: 204728 0.409456%
BRANCH_RETURN: 870978 1.74196%
BRANCH_OTHER: 0 0%

