Initialize SIGNATURE TABLE
ST_SET: 1
ST_WAY: 256
ST_TAG_BIT: 16
ST_TAG_MASK: ffff

Initialize PATTERN TABLE
PT_SET: 512
PT_WAY: 4
SIG_DELTA_BIT: 7
C_SIG_BIT: 4
C_DELTA_BIT: 4

Initialize PREFETCH FILTER
FILTER_SET: 1024
MANA initialize 
tds: 2 tdm: 2
size MANA SINGLE: 15.5 KB
size MANA NULTIPLE: 0 KB
size HOBPT: 0.703125 KB
size SRQ: 0.14502 KB
size SABs: 0.290039 KB
size prefetch queue: 0.453125 KB
total: 17.0913 KB

*** ChampSim Multicore Out-of-Order Simulator ***

Warmup Instructions: 50000000
Simulation Instructions: 50000000
Number of CPUs: 1
LLC sets: 2048
LLC ways: 16
Off-chip DRAM Size: 4096 MB Channels: 1 Width: 64-bit Data Rate: 3200 MT/s

CPU 0 runs /home/mbaradaran/ChampSim/dpc3_traces/server_037.champsimtrace.xz
CPU 0 L1D next line prefetcher
Heartbeat CPU 0 instructions: 10000001 cycles: 3324891 heartbeat IPC: 3.00762 cumulative IPC: 3.00762 (Simulation time: 0 hr 1 min 32 sec) 
Heartbeat CPU 0 instructions: 20000002 cycles: 6647661 heartbeat IPC: 3.00954 cumulative IPC: 3.00858 (Simulation time: 0 hr 2 min 59 sec) 
Heartbeat CPU 0 instructions: 30000003 cycles: 10017680 heartbeat IPC: 2.96734 cumulative IPC: 2.99471 (Simulation time: 0 hr 4 min 25 sec) 
Heartbeat CPU 0 instructions: 40000000 cycles: 13341794 heartbeat IPC: 3.00832 cumulative IPC: 2.9981 (Simulation time: 0 hr 5 min 52 sec) 
Heartbeat CPU 0 instructions: 50000003 cycles: 16665026 heartbeat IPC: 3.00912 cumulative IPC: 3.0003 (Simulation time: 0 hr 7 min 22 sec) 

Warmup complete CPU 0 instructions: 50000003 cycles: 16665026 (Simulation time: 0 hr 7 min 22 sec) 

Heartbeat CPU 0 instructions: 60000001 cycles: 23079379 heartbeat IPC: 1.559 cumulative IPC: 1.559 (Simulation time: 0 hr 8 min 55 sec) 
Heartbeat CPU 0 instructions: 70000000 cycles: 29596357 heartbeat IPC: 1.53445 cumulative IPC: 1.54663 (Simulation time: 0 hr 10 min 19 sec) 
Heartbeat CPU 0 instructions: 80000000 cycles: 35999047 heartbeat IPC: 1.56184 cumulative IPC: 1.55167 (Simulation time: 0 hr 11 min 42 sec) 
Heartbeat CPU 0 instructions: 90000002 cycles: 42424982 heartbeat IPC: 1.55619 cumulative IPC: 1.5528 (Simulation time: 0 hr 13 min 2 sec) 
*** Reached end of trace for Core: 0 Repeating trace: /home/mbaradaran/ChampSim/dpc3_traces/server_037.champsimtrace.xz
Heartbeat CPU 0 instructions: 100000000 cycles: 48852681 heartbeat IPC: 1.55577 cumulative IPC: 1.55339 (Simulation time: 0 hr 14 min 21 sec) 
Finished CPU 0 instructions: 50000001 cycles: 32187656 cumulative IPC: 1.55339 (Simulation time: 0 hr 14 min 21 sec) 

ChampSim completed all CPUs

Region of Interest Statistics

CPU 0 cumulative IPC: 1.55339 instructions: 50000001 cycles: 32187656

SHEET
IPC : 1.55339

L1D TOTAL     ACCESS:   18759816  HIT:   17781722  MISS:     978094
L1D LOAD      ACCESS:    6395541  HIT:    5905240  MISS:     490301
L1D RFO       ACCESS:    6205810  HIT:    6141318  MISS:      64492
L1D PREFETCH  ACCESS:    6158465  HIT:    5735164  MISS:     423301
L1D WRITEBACK ACCESS:          0  HIT:          0  MISS:          0
L1D PREFETCH  REQUESTED:    6432140  ISSUED:    6279042  USEFUL:     118081  USELESS:     305225
L1D AVERAGE MISS LATENCY: 28.8475 cycles
L1D

SHEET
L1D-total_access : 18759816
L1D-total_hit : 17781722
L1D-total_miss : 978094
L1D-load_access : 6395541
L1D-load_hit : 5905240
L1D-load_miss : 490301
L1D-rfo_access : 6205810
L1D-rfo_hit : 6141318
L1D-rfo_miss : 64492
L1D-prefetch_access : 6158465
L1D-prefetch_hit : 5735164
L1D-prefetch_miss : 423301
L1D-writeback_access : 0
L1D-writeback_hit : 0
L1D-writeback_miss : 0
L1D-prefetch_requested : 6432140
L1D-prefetch_issued : 6279042
L1D-prefetch_useful : 118081
L1D-prefetch_useless : 305225
L1D-Avg_miss_latency : 28.8475
L1D-Morteza_fill_l2_prefetches : 0

L1I TOTAL     ACCESS:   19039154  HIT:   13986201  MISS:    5052953
L1I LOAD      ACCESS:    9287195  HIT:    8724084  MISS:     563111
L1I RFO       ACCESS:          0  HIT:          0  MISS:          0
L1I PREFETCH  ACCESS:    9751959  HIT:    5262117  MISS:    4489842
L1I WRITEBACK ACCESS:          0  HIT:          0  MISS:          0
L1I PREFETCH  REQUESTED:   10505875  ISSUED:   10338696  USEFUL:    3490349  USELESS:     999529
L1I AVERAGE MISS LATENCY: 14.6199 cycles
L1I

SHEET
L1I-total_access : 19039154
L1I-total_hit : 13986201
L1I-total_miss : 5052953
L1I-load_access : 9287195
L1I-load_hit : 8724084
L1I-load_miss : 563111
L1I-rfo_access : 0
L1I-rfo_hit : 0
L1I-rfo_miss : 0
L1I-prefetch_access : 9751959
L1I-prefetch_hit : 5262117
L1I-prefetch_miss : 4489842
L1I-writeback_access : 0
L1I-writeback_hit : 0
L1I-writeback_miss : 0
L1I-prefetch_requested : 10505875
L1I-prefetch_issued : 10338696
L1I-prefetch_useful : 3490349
L1I-prefetch_useless : 999529
L1I-Avg_miss_latency : 14.6199
L1I-Morteza_fill_l2_prefetches : 0

L2C TOTAL     ACCESS:    8893410  HIT:    8591342  MISS:     302068
L2C LOAD      ACCESS:     903075  HIT:     767280  MISS:     135795
L2C RFO       ACCESS:      64208  HIT:      37476  MISS:      26732
L2C PREFETCH  ACCESS:    7636607  HIT:    7498016  MISS:     138591
L2C WRITEBACK ACCESS:     289520  HIT:     288570  MISS:        950
L2C PREFETCH  REQUESTED:    7418000  ISSUED:    7383323  USEFUL:       6389  USELESS:     132011
L2C AVERAGE MISS LATENCY: 46.2068 cycles
L2C

SHEET
L2C-total_access : 8893410
L2C-total_hit : 8591342
L2C-total_miss : 302068
L2C-load_access : 903075
L2C-load_hit : 767280
L2C-load_miss : 135795
L2C-rfo_access : 64208
L2C-rfo_hit : 37476
L2C-rfo_miss : 26732
L2C-prefetch_access : 7636607
L2C-prefetch_hit : 7498016
L2C-prefetch_miss : 138591
L2C-writeback_access : 289520
L2C-writeback_hit : 288570
L2C-writeback_miss : 950
L2C-prefetch_requested : 7418000
L2C-prefetch_issued : 7383323
L2C-prefetch_useful : 6389
L2C-prefetch_useless : 132011
L2C-Avg_miss_latency : 46.2068
L2C-Morteza_fill_l2_prefetches : 2601871

LLC TOTAL     ACCESS:    1677743  HIT:    1620762  MISS:      56981
LLC LOAD      ACCESS:     135778  HIT:     122677  MISS:      13101
LLC RFO       ACCESS:      26731  HIT:      22284  MISS:       4447
LLC PREFETCH  ACCESS:    1380851  HIT:    1341978  MISS:      38873
LLC WRITEBACK ACCESS:     134383  HIT:     133823  MISS:        560
LLC PREFETCH  REQUESTED:          0  ISSUED:          0  USEFUL:       4339  USELESS:      32970
LLC AVERAGE MISS LATENCY: 167.855 cycles
LLC

SHEET
LLC-total_access : 1677743
LLC-total_hit : 1620762
LLC-total_miss : 56981
LLC-load_access : 135778
LLC-load_hit : 122677
LLC-load_miss : 13101
LLC-rfo_access : 26731
LLC-rfo_hit : 22284
LLC-rfo_miss : 4447
LLC-prefetch_access : 1380851
LLC-prefetch_hit : 1341978
LLC-prefetch_miss : 38873
LLC-writeback_access : 134383
LLC-writeback_hit : 133823
LLC-writeback_miss : 560
LLC-prefetch_requested : 0
LLC-prefetch_issued : 0
LLC-prefetch_useful : 4339
LLC-prefetch_useless : 32970
LLC-Avg_miss_latency : 167.855
LLC-Morteza_fill_l2_prefetches : 1222569

Major fault: 0 Minor fault: 5652



Printing Logs
statHeadFound: 720695
statHeadMissing: 393061
statStreamBufferHit: 13433656
statPrefetchEntryFound: 6571938
statCompactorMatch: 11307729
statStreamTrackerLookup: 14547412
statRecord: 3239683
statGetPointer: 1113756
statEnqueuePrefetch: 20683079
statPrefetchQueueIsFull: 8752
StreamBufferHitRate: 0.92344
Regions' size: 1122
next_region_correct: 2595606
next_region_wrong: 642937
next_region_correct_prediction: 0.801473
statStreamBufferLookups: 1047413664
statL1iLookups: 165464632
statCompactorLookups: 523706832
morteza: start

SHEET
mana_table_access_counter : 9820355
hobp_table_access_counter : 23994407
sab_access_counter : 20005594
srq_access_counter : 16712533

morteza: end
CPU 0 L1D next line prefetcher final stats

DRAM Statistics
 CHANNEL 0
 RQ ROW_BUFFER_HIT:       8375  ROW_BUFFER_MISS:      48045
 DBUS_CONGESTED:      28527
 WQ ROW_BUFFER_HIT:       1291  ROW_BUFFER_MISS:      11399  FULL:          0

 AVG_CONGESTED_CYCLE: 5

CPU 0 Branch Prediction Accuracy: 99.913% MPKI: 0.15656 Average ROB Occupancy at Mispredict: 183.001

Branch types
NOT_BRANCH: 41001748 82.0035%
BRANCH_DIRECT_JUMP: 541941 1.08388%
BRANCH_INDIRECT: 59716 0.119432%
BRANCH_CONDITIONAL: 5916857 11.8337%
BRANCH_DIRECT_CALL: 1005466 2.01093%
BRANCH_INDIRECT_CALL: 234433 0.468866%
BRANCH_RETURN: 1239878 2.47976%
BRANCH_OTHER: 0 0%

