Initialize SIGNATURE TABLE
ST_SET: 1
ST_WAY: 256
ST_TAG_BIT: 16
ST_TAG_MASK: ffff

Initialize PATTERN TABLE
PT_SET: 512
PT_WAY: 4
SIG_DELTA_BIT: 7
C_SIG_BIT: 4
C_DELTA_BIT: 4

Initialize PREFETCH FILTER
FILTER_SET: 1024
MANA initialize 
tds: 2 tdm: 2
size MANA SINGLE: 15.5 KB
size MANA NULTIPLE: 0 KB
size HOBPT: 0.703125 KB
size SRQ: 0.14502 KB
size SABs: 0.290039 KB
size prefetch queue: 0.453125 KB
total: 17.0913 KB

*** ChampSim Multicore Out-of-Order Simulator ***

Warmup Instructions: 50000000
Simulation Instructions: 50000000
Number of CPUs: 1
LLC sets: 2048
LLC ways: 16
Off-chip DRAM Size: 4096 MB Channels: 1 Width: 64-bit Data Rate: 3200 MT/s

CPU 0 runs /home/mbaradaran/ChampSim/dpc3_traces/server_003.champsimtrace.xz
CPU 0 L1D next line prefetcher
Heartbeat CPU 0 instructions: 10000002 cycles: 3227715 heartbeat IPC: 3.09817 cumulative IPC: 3.09817 (Simulation time: 0 hr 1 min 17 sec) 
Heartbeat CPU 0 instructions: 20000000 cycles: 6551136 heartbeat IPC: 3.00895 cumulative IPC: 3.05291 (Simulation time: 0 hr 2 min 35 sec) 
Heartbeat CPU 0 instructions: 30000000 cycles: 9766711 heartbeat IPC: 3.10986 cumulative IPC: 3.07166 (Simulation time: 0 hr 3 min 52 sec) 
Heartbeat CPU 0 instructions: 40000001 cycles: 13186412 heartbeat IPC: 2.92423 cumulative IPC: 3.03343 (Simulation time: 0 hr 5 min 16 sec) 
Heartbeat CPU 0 instructions: 50000003 cycles: 16905829 heartbeat IPC: 2.68859 cumulative IPC: 2.95756 (Simulation time: 0 hr 6 min 38 sec) 

Warmup complete CPU 0 instructions: 50000003 cycles: 16905829 (Simulation time: 0 hr 6 min 38 sec) 

Heartbeat CPU 0 instructions: 60000000 cycles: 26265684 heartbeat IPC: 1.06839 cumulative IPC: 1.06839 (Simulation time: 0 hr 7 min 54 sec) 
Heartbeat CPU 0 instructions: 70000003 cycles: 35605851 heartbeat IPC: 1.07064 cumulative IPC: 1.06952 (Simulation time: 0 hr 9 min 3 sec) 
Heartbeat CPU 0 instructions: 80000000 cycles: 46230326 heartbeat IPC: 0.941223 cumulative IPC: 1.02304 (Simulation time: 0 hr 10 min 20 sec) 
Heartbeat CPU 0 instructions: 90000001 cycles: 56972409 heartbeat IPC: 0.930918 cumulative IPC: 0.998338 (Simulation time: 0 hr 11 min 32 sec) 
Heartbeat CPU 0 instructions: 100000001 cycles: 68306602 heartbeat IPC: 0.882286 cumulative IPC: 0.972748 (Simulation time: 0 hr 12 min 49 sec) 
Finished CPU 0 instructions: 50000002 cycles: 51400774 cumulative IPC: 0.972748 (Simulation time: 0 hr 12 min 49 sec) 

ChampSim completed all CPUs

Region of Interest Statistics

CPU 0 cumulative IPC: 0.972748 instructions: 50000002 cycles: 51400774

SHEET
IPC : 0.972748

L1D TOTAL     ACCESS:   20138327  HIT:   18997242  MISS:    1141085
L1D LOAD      ACCESS:    7918798  HIT:    7389933  MISS:     528865
L1D RFO       ACCESS:    4560299  HIT:    4442907  MISS:     117392
L1D PREFETCH  ACCESS:    7659230  HIT:    7164402  MISS:     494828
L1D WRITEBACK ACCESS:          0  HIT:          0  MISS:          0
L1D PREFETCH  REQUESTED:    7978841  ISSUED:    7886642  USEFUL:     156536  USELESS:     338251
L1D AVERAGE MISS LATENCY: 54.0453 cycles
L1D

SHEET
L1D-total_access : 20138327
L1D-total_hit : 18997242
L1D-total_miss : 1141085
L1D-load_access : 7918798
L1D-load_hit : 7389933
L1D-load_miss : 528865
L1D-rfo_access : 4560299
L1D-rfo_hit : 4442907
L1D-rfo_miss : 117392
L1D-prefetch_access : 7659230
L1D-prefetch_hit : 7164402
L1D-prefetch_miss : 494828
L1D-writeback_access : 0
L1D-writeback_hit : 0
L1D-writeback_miss : 0
L1D-prefetch_requested : 7978841
L1D-prefetch_issued : 7886642
L1D-prefetch_useful : 156536
L1D-prefetch_useless : 338251
L1D-Avg_miss_latency : 54.0453
L1D-Morteza_fill_l2_prefetches : 0

L1I TOTAL     ACCESS:   16606532  HIT:   14826475  MISS:    1780057
L1I LOAD      ACCESS:    9301431  HIT:    8966900  MISS:     334531
L1I RFO       ACCESS:          0  HIT:          0  MISS:          0
L1I PREFETCH  ACCESS:    7305101  HIT:    5859575  MISS:    1445526
L1I WRITEBACK ACCESS:          0  HIT:          0  MISS:          0
L1I PREFETCH  REQUESTED:    8106054  ISSUED:    7741525  USEFUL:     734709  USELESS:     710617
L1I AVERAGE MISS LATENCY: 30.3097 cycles
L1I

SHEET
L1I-total_access : 16606532
L1I-total_hit : 14826475
L1I-total_miss : 1780057
L1I-load_access : 9301431
L1I-load_hit : 8966900
L1I-load_miss : 334531
L1I-rfo_access : 0
L1I-rfo_hit : 0
L1I-rfo_miss : 0
L1I-prefetch_access : 7305101
L1I-prefetch_hit : 5859575
L1I-prefetch_miss : 1445526
L1I-writeback_access : 0
L1I-writeback_hit : 0
L1I-writeback_miss : 0
L1I-prefetch_requested : 8106054
L1I-prefetch_issued : 7741525
L1I-prefetch_useful : 734709
L1I-prefetch_useless : 710617
L1I-Avg_miss_latency : 30.3097
L1I-Morteza_fill_l2_prefetches : 0

L2C TOTAL     ACCESS:    3908596  HIT:    2902444  MISS:    1006152
L2C LOAD      ACCESS:     779823  HIT:     439959  MISS:     339864
L2C RFO       ACCESS:     114627  HIT:      40125  MISS:      74502
L2C PREFETCH  ACCESS:    2729876  HIT:    2139799  MISS:     590077
L2C WRITEBACK ACCESS:     284270  HIT:     282561  MISS:       1709
L2C PREFETCH  REQUESTED:    3139570  ISSUED:    3136647  USEFUL:      50060  USELESS:     538186
L2C AVERAGE MISS LATENCY: 74.9993 cycles
L2C

SHEET
L2C-total_access : 3908596
L2C-total_hit : 2902444
L2C-total_miss : 1006152
L2C-load_access : 779823
L2C-load_hit : 439959
L2C-load_miss : 339864
L2C-rfo_access : 114627
L2C-rfo_hit : 40125
L2C-rfo_miss : 74502
L2C-prefetch_access : 2729876
L2C-prefetch_hit : 2139799
L2C-prefetch_miss : 590077
L2C-writeback_access : 284270
L2C-writeback_hit : 282561
L2C-writeback_miss : 1709
L2C-prefetch_requested : 3139570
L2C-prefetch_issued : 3136647
L2C-prefetch_useful : 50060
L2C-prefetch_useless : 538186
L2C-Avg_miss_latency : 74.9993
L2C-Morteza_fill_l2_prefetches : 714922

LLC TOTAL     ACCESS:    2021999  HIT:    1661540  MISS:     360459
LLC LOAD      ACCESS:     338487  HIT:     255220  MISS:      83267
LLC RFO       ACCESS:      74499  HIT:      32521  MISS:      41978
LLC PREFETCH  ACCESS:    1442174  HIT:    1208202  MISS:     233972
LLC WRITEBACK ACCESS:     166839  HIT:     165597  MISS:       1242
LLC PREFETCH  REQUESTED:          0  ISSUED:          0  USEFUL:      42384  USELESS:     182539
LLC AVERAGE MISS LATENCY: 180.375 cycles
LLC

SHEET
LLC-total_access : 2021999
LLC-total_hit : 1661540
LLC-total_miss : 360459
LLC-load_access : 338487
LLC-load_hit : 255220
LLC-load_miss : 83267
LLC-rfo_access : 74499
LLC-rfo_hit : 32521
LLC-rfo_miss : 41978
LLC-prefetch_access : 1442174
LLC-prefetch_hit : 1208202
LLC-prefetch_miss : 233972
LLC-writeback_access : 166839
LLC-writeback_hit : 165597
LLC-writeback_miss : 1242
LLC-prefetch_requested : 0
LLC-prefetch_issued : 0
LLC-prefetch_useful : 42384
LLC-prefetch_useless : 182539
LLC-Avg_miss_latency : 180.375
LLC-Morteza_fill_l2_prefetches : 761951

Major fault: 0 Minor fault: 7768



Printing Logs
statHeadFound: 622524
statHeadMissing: 1195405
statStreamBufferHit: 11973348
statPrefetchEntryFound: 4878258
statCompactorMatch: 12229757
statStreamTrackerLookup: 13791277
statRecord: 1561520
statGetPointer: 1817929
statEnqueuePrefetch: 15786459
statPrefetchQueueIsFull: 61815
StreamBufferHitRate: 0.868183
Regions' size: 9163
next_region_correct: 1122509
next_region_wrong: 429830
next_region_correct_prediction: 0.723108
statStreamBufferLookups: 992971944
statL1iLookups: 126291672
statCompactorLookups: 496485972
morteza: start

SHEET
mana_table_access_counter : 6501575
hobp_table_access_counter : 18457884
sab_access_counter : 16851606
srq_access_counter : 12982160

morteza: end
CPU 0 L1D next line prefetcher final stats

DRAM Statistics
 CHANNEL 0
 RQ ROW_BUFFER_HIT:      79066  ROW_BUFFER_MISS:     280124
 DBUS_CONGESTED:     179618
 WQ ROW_BUFFER_HIT:      24219  ROW_BUFFER_MISS:      78561  FULL:          0

 AVG_CONGESTED_CYCLE: 5

CPU 0 Branch Prediction Accuracy: 95.439% MPKI: 9.02702 Average ROB Occupancy at Mispredict: 62.4602

Branch types
NOT_BRANCH: 40104086 80.2082%
BRANCH_DIRECT_JUMP: 497928 0.995856%
BRANCH_INDIRECT: 130587 0.261174%
BRANCH_CONDITIONAL: 7219017 14.438%
BRANCH_DIRECT_CALL: 625807 1.25161%
BRANCH_INDIRECT_CALL: 389787 0.779574%
BRANCH_RETURN: 1032747 2.06549%
BRANCH_OTHER: 0 0%

