Initialize SIGNATURE TABLE
ST_SET: 1
ST_WAY: 256
ST_TAG_BIT: 16
ST_TAG_MASK: ffff

Initialize PATTERN TABLE
PT_SET: 512
PT_WAY: 4
SIG_DELTA_BIT: 7
C_SIG_BIT: 4
C_DELTA_BIT: 4

Initialize PREFETCH FILTER
FILTER_SET: 1024
MANA initialize 
tds: 2 tdm: 2
size MANA SINGLE: 15.5 KB
size MANA NULTIPLE: 0 KB
size HOBPT: 0.703125 KB
size SRQ: 0.14502 KB
size SABs: 0.290039 KB
size prefetch queue: 0.453125 KB
total: 17.0913 KB

*** ChampSim Multicore Out-of-Order Simulator ***

Warmup Instructions: 50000000
Simulation Instructions: 50000000
Number of CPUs: 1
LLC sets: 2048
LLC ways: 16
Off-chip DRAM Size: 4096 MB Channels: 1 Width: 64-bit Data Rate: 3200 MT/s

CPU 0 runs /home/mbaradaran/ChampSim/dpc3_traces/server_027.champsimtrace.xz
CPU 0 L1D next line prefetcher
Heartbeat CPU 0 instructions: 10000001 cycles: 3538859 heartbeat IPC: 2.82577 cumulative IPC: 2.82577 (Simulation time: 0 hr 1 min 24 sec) 
Heartbeat CPU 0 instructions: 20000001 cycles: 7082051 heartbeat IPC: 2.82231 cumulative IPC: 2.82404 (Simulation time: 0 hr 2 min 44 sec) 
Heartbeat CPU 0 instructions: 30000002 cycles: 10620354 heartbeat IPC: 2.82621 cumulative IPC: 2.82476 (Simulation time: 0 hr 4 min 7 sec) 
Heartbeat CPU 0 instructions: 40000000 cycles: 14163860 heartbeat IPC: 2.82206 cumulative IPC: 2.82409 (Simulation time: 0 hr 5 min 32 sec) 
Heartbeat CPU 0 instructions: 50000000 cycles: 17700965 heartbeat IPC: 2.82717 cumulative IPC: 2.8247 (Simulation time: 0 hr 7 min 4 sec) 

Warmup complete CPU 0 instructions: 50000004 cycles: 17700966 (Simulation time: 0 hr 7 min 4 sec) 

Heartbeat CPU 0 instructions: 60000002 cycles: 25123994 heartbeat IPC: 1.34716 cumulative IPC: 1.34716 (Simulation time: 0 hr 8 min 25 sec) 
Heartbeat CPU 0 instructions: 70000003 cycles: 32462485 heartbeat IPC: 1.36268 cumulative IPC: 1.35487 (Simulation time: 0 hr 9 min 48 sec) 
Heartbeat CPU 0 instructions: 80000002 cycles: 39849829 heartbeat IPC: 1.35367 cumulative IPC: 1.35447 (Simulation time: 0 hr 11 min 16 sec) 
Heartbeat CPU 0 instructions: 90000001 cycles: 47271562 heartbeat IPC: 1.34739 cumulative IPC: 1.35269 (Simulation time: 0 hr 12 min 39 sec) 
Heartbeat CPU 0 instructions: 100000002 cycles: 54585163 heartbeat IPC: 1.36732 cumulative IPC: 1.35559 (Simulation time: 0 hr 13 min 58 sec) 
Finished CPU 0 instructions: 50000002 cycles: 36884198 cumulative IPC: 1.35559 (Simulation time: 0 hr 13 min 58 sec) 

ChampSim completed all CPUs

Region of Interest Statistics

CPU 0 cumulative IPC: 1.35559 instructions: 50000002 cycles: 36884198

SHEET
IPC : 1.35559

L1D TOTAL     ACCESS:   20519000  HIT:   18916660  MISS:    1602340
L1D LOAD      ACCESS:    7250175  HIT:    6560479  MISS:     689696
L1D RFO       ACCESS:    6303270  HIT:    6017036  MISS:     286234
L1D PREFETCH  ACCESS:    6965555  HIT:    6339145  MISS:     626410
L1D WRITEBACK ACCESS:          0  HIT:          0  MISS:          0
L1D PREFETCH  REQUESTED:    7295985  ISSUED:    7174560  USEFUL:     151668  USELESS:     474754
L1D AVERAGE MISS LATENCY: 23.2455 cycles
L1D

SHEET
L1D-total_access : 20519000
L1D-total_hit : 18916660
L1D-total_miss : 1602340
L1D-load_access : 7250175
L1D-load_hit : 6560479
L1D-load_miss : 689696
L1D-rfo_access : 6303270
L1D-rfo_hit : 6017036
L1D-rfo_miss : 286234
L1D-prefetch_access : 6965555
L1D-prefetch_hit : 6339145
L1D-prefetch_miss : 626410
L1D-writeback_access : 0
L1D-writeback_hit : 0
L1D-writeback_miss : 0
L1D-prefetch_requested : 7295985
L1D-prefetch_issued : 7174560
L1D-prefetch_useful : 151668
L1D-prefetch_useless : 474754
L1D-Avg_miss_latency : 23.2455
L1D-Morteza_fill_l2_prefetches : 0

L1I TOTAL     ACCESS:   19398245  HIT:   14451261  MISS:    4946984
L1I LOAD      ACCESS:    9257856  HIT:    8361552  MISS:     896304
L1I RFO       ACCESS:          0  HIT:          0  MISS:          0
L1I PREFETCH  ACCESS:   10140389  HIT:    6089709  MISS:    4050680
L1I WRITEBACK ACCESS:          0  HIT:          0  MISS:          0
L1I PREFETCH  REQUESTED:   11283114  ISSUED:   11009178  USEFUL:    2167299  USELESS:    1883364
L1I AVERAGE MISS LATENCY: 16.5321 cycles
L1I

SHEET
L1I-total_access : 19398245
L1I-total_hit : 14451261
L1I-total_miss : 4946984
L1I-load_access : 9257856
L1I-load_hit : 8361552
L1I-load_miss : 896304
L1I-rfo_access : 0
L1I-rfo_hit : 0
L1I-rfo_miss : 0
L1I-prefetch_access : 10140389
L1I-prefetch_hit : 6089709
L1I-prefetch_miss : 4050680
L1I-writeback_access : 0
L1I-writeback_hit : 0
L1I-writeback_miss : 0
L1I-prefetch_requested : 11283114
L1I-prefetch_issued : 11009178
L1I-prefetch_useful : 2167299
L1I-prefetch_useless : 1883364
L1I-Avg_miss_latency : 16.5321
L1I-Morteza_fill_l2_prefetches : 0

L2C TOTAL     ACCESS:    8784258  HIT:    8051634  MISS:     732624
L2C LOAD      ACCESS:    1351944  HIT:    1152521  MISS:     199423
L2C RFO       ACCESS:     283633  HIT:     197277  MISS:      86356
L2C PREFETCH  ACCESS:    6589425  HIT:    6147800  MISS:     441625
L2C WRITEBACK ACCESS:     559256  HIT:     554036  MISS:       5220
L2C PREFETCH  REQUESTED:    6664048  ISSUED:    6656295  USEFUL:      39392  USELESS:     401184
L2C AVERAGE MISS LATENCY: 38.8724 cycles
L2C

SHEET
L2C-total_access : 8784258
L2C-total_hit : 8051634
L2C-total_miss : 732624
L2C-load_access : 1351944
L2C-load_hit : 1152521
L2C-load_miss : 199423
L2C-rfo_access : 283633
L2C-rfo_hit : 197277
L2C-rfo_miss : 86356
L2C-prefetch_access : 6589425
L2C-prefetch_hit : 6147800
L2C-prefetch_miss : 441625
L2C-writeback_access : 559256
L2C-writeback_hit : 554036
L2C-writeback_miss : 5220
L2C-prefetch_requested : 6664048
L2C-prefetch_issued : 6656295
L2C-prefetch_useful : 39392
L2C-prefetch_useless : 401184
L2C-Avg_miss_latency : 38.8724
L2C-Morteza_fill_l2_prefetches : 1713670

LLC TOTAL     ACCESS:    2557928  HIT:    2525910  MISS:      32018
LLC LOAD      ACCESS:     199294  HIT:     195797  MISS:       3497
LLC RFO       ACCESS:      86356  HIT:      72459  MISS:      13897
LLC PREFETCH  ACCESS:    2131845  HIT:    2117392  MISS:      14453
LLC WRITEBACK ACCESS:     140433  HIT:     140262  MISS:        171
LLC PREFETCH  REQUESTED:          0  ISSUED:          0  USEFUL:       1370  USELESS:      12338
LLC AVERAGE MISS LATENCY: 186.022 cycles
LLC

SHEET
LLC-total_access : 2557928
LLC-total_hit : 2525910
LLC-total_miss : 32018
LLC-load_access : 199294
LLC-load_hit : 195797
LLC-load_miss : 3497
LLC-rfo_access : 86356
LLC-rfo_hit : 72459
LLC-rfo_miss : 13897
LLC-prefetch_access : 2131845
LLC-prefetch_hit : 2117392
LLC-prefetch_miss : 14453
LLC-writeback_access : 140433
LLC-writeback_hit : 140262
LLC-writeback_miss : 171
LLC-prefetch_requested : 0
LLC-prefetch_issued : 0
LLC-prefetch_useful : 1370
LLC-prefetch_useless : 12338
LLC-Avg_miss_latency : 186.022
LLC-Morteza_fill_l2_prefetches : 1699733

Major fault: 0 Minor fault: 2477



Printing Logs
statHeadFound: 1059090
statHeadMissing: 1259999
statStreamBufferHit: 11898358
statPrefetchEntryFound: 7284458
statCompactorMatch: 11676323
statStreamTrackerLookup: 14217447
statRecord: 2541124
statGetPointer: 2319089
statEnqueuePrefetch: 21849667
statPrefetchQueueIsFull: 74379
StreamBufferHitRate: 0.836884
Regions' size: 2222
next_region_correct: 1718109
next_region_wrong: 820775
next_region_correct_prediction: 0.676718
statStreamBufferLookups: 1023656184
statL1iLookups: 174797336
statCompactorLookups: 511828092
morteza: start

SHEET
mana_table_access_counter : 9899943
hobp_table_access_counter : 26799689
sab_access_counter : 19182816
srq_access_counter : 15409349

morteza: end
CPU 0 L1D next line prefetcher final stats

DRAM Statistics
 CHANNEL 0
 RQ ROW_BUFFER_HIT:      10794  ROW_BUFFER_MISS:      21050
 DBUS_CONGESTED:      22766
 WQ ROW_BUFFER_HIT:       1706  ROW_BUFFER_MISS:      14383  FULL:          0

 AVG_CONGESTED_CYCLE: 6

CPU 0 Branch Prediction Accuracy: 99.8082% MPKI: 0.35064 Average ROB Occupancy at Mispredict: 140.199

Branch types
NOT_BRANCH: 40857519 81.715%
BRANCH_DIRECT_JUMP: 526635 1.05327%
BRANCH_INDIRECT: 205902 0.411804%
BRANCH_CONDITIONAL: 6184050 12.3681%
BRANCH_DIRECT_CALL: 938469 1.87694%
BRANCH_INDIRECT_CALL: 174486 0.348972%
BRANCH_RETURN: 1112961 2.22592%
BRANCH_OTHER: 0 0%

