Initialize SIGNATURE TABLE
ST_SET: 1
ST_WAY: 256
ST_TAG_BIT: 16
ST_TAG_MASK: ffff

Initialize PATTERN TABLE
PT_SET: 512
PT_WAY: 4
SIG_DELTA_BIT: 7
C_SIG_BIT: 4
C_DELTA_BIT: 4

Initialize PREFETCH FILTER
FILTER_SET: 1024
MANA initialize 
tds: 2 tdm: 2
size MANA SINGLE: 15.5 KB
size MANA NULTIPLE: 0 KB
size HOBPT: 0.703125 KB
size SRQ: 0.14502 KB
size SABs: 0.290039 KB
size prefetch queue: 0.453125 KB
total: 17.0913 KB

*** ChampSim Multicore Out-of-Order Simulator ***

Warmup Instructions: 50000000
Simulation Instructions: 50000000
Number of CPUs: 1
LLC sets: 2048
LLC ways: 16
Off-chip DRAM Size: 4096 MB Channels: 1 Width: 64-bit Data Rate: 3200 MT/s

CPU 0 runs /home/mbaradaran/ChampSim/dpc3_traces/server_034.champsimtrace.xz
CPU 0 L1D next line prefetcher
Heartbeat CPU 0 instructions: 10000000 cycles: 3334476 heartbeat IPC: 2.99897 cumulative IPC: 2.99897 (Simulation time: 0 hr 1 min 24 sec) 
Heartbeat CPU 0 instructions: 20000002 cycles: 6661614 heartbeat IPC: 3.00559 cumulative IPC: 3.00228 (Simulation time: 0 hr 2 min 54 sec) 
Heartbeat CPU 0 instructions: 30000003 cycles: 9996994 heartbeat IPC: 2.99816 cumulative IPC: 3.0009 (Simulation time: 0 hr 4 min 17 sec) 
Heartbeat CPU 0 instructions: 40000001 cycles: 13330466 heartbeat IPC: 2.99987 cumulative IPC: 3.00065 (Simulation time: 0 hr 5 min 39 sec) 
Heartbeat CPU 0 instructions: 50000000 cycles: 16663110 heartbeat IPC: 3.00062 cumulative IPC: 3.00064 (Simulation time: 0 hr 7 min 6 sec) 

Warmup complete CPU 0 instructions: 50000002 cycles: 16663111 (Simulation time: 0 hr 7 min 6 sec) 

Heartbeat CPU 0 instructions: 60000002 cycles: 22891574 heartbeat IPC: 1.60553 cumulative IPC: 1.60553 (Simulation time: 0 hr 8 min 26 sec) 
Heartbeat CPU 0 instructions: 70000003 cycles: 29459333 heartbeat IPC: 1.52259 cumulative IPC: 1.56296 (Simulation time: 0 hr 9 min 44 sec) 
Heartbeat CPU 0 instructions: 80000002 cycles: 35734917 heartbeat IPC: 1.59348 cumulative IPC: 1.573 (Simulation time: 0 hr 11 min 3 sec) 
Heartbeat CPU 0 instructions: 90000002 cycles: 42006485 heartbeat IPC: 1.5945 cumulative IPC: 1.57832 (Simulation time: 0 hr 12 min 23 sec) 
Heartbeat CPU 0 instructions: 100000002 cycles: 48276829 heartbeat IPC: 1.59481 cumulative IPC: 1.58159 (Simulation time: 0 hr 13 min 41 sec) 
Finished CPU 0 instructions: 50000000 cycles: 31613718 cumulative IPC: 1.58159 (Simulation time: 0 hr 13 min 41 sec) 

ChampSim completed all CPUs

Region of Interest Statistics

CPU 0 cumulative IPC: 1.58159 instructions: 50000000 cycles: 31613718

SHEET
IPC : 1.58159

L1D TOTAL     ACCESS:   18584159  HIT:   17160178  MISS:    1423981
L1D LOAD      ACCESS:    6297356  HIT:    5642311  MISS:     655045
L1D RFO       ACCESS:    6168197  HIT:    6024820  MISS:     143377
L1D PREFETCH  ACCESS:    6118606  HIT:    5493047  MISS:     625559
L1D WRITEBACK ACCESS:          0  HIT:          0  MISS:          0
L1D PREFETCH  REQUESTED:    6332087  ISSUED:    6250144  USEFUL:     141077  USELESS:     484449
L1D AVERAGE MISS LATENCY: 17.8175 cycles
L1D

SHEET
L1D-total_access : 18584159
L1D-total_hit : 17160178
L1D-total_miss : 1423981
L1D-load_access : 6297356
L1D-load_hit : 5642311
L1D-load_miss : 655045
L1D-rfo_access : 6168197
L1D-rfo_hit : 6024820
L1D-rfo_miss : 143377
L1D-prefetch_access : 6118606
L1D-prefetch_hit : 5493047
L1D-prefetch_miss : 625559
L1D-writeback_access : 0
L1D-writeback_hit : 0
L1D-writeback_miss : 0
L1D-prefetch_requested : 6332087
L1D-prefetch_issued : 6250144
L1D-prefetch_useful : 141077
L1D-prefetch_useless : 484449
L1D-Avg_miss_latency : 17.8175
L1D-Morteza_fill_l2_prefetches : 0

L1I TOTAL     ACCESS:   19000410  HIT:   14182245  MISS:    4818165
L1I LOAD      ACCESS:    9509480  HIT:    8833257  MISS:     676223
L1I RFO       ACCESS:          0  HIT:          0  MISS:          0
L1I PREFETCH  ACCESS:    9490930  HIT:    5348988  MISS:    4141942
L1I WRITEBACK ACCESS:          0  HIT:          0  MISS:          0
L1I PREFETCH  REQUESTED:   10494321  ISSUED:   10327196  USEFUL:    2882570  USELESS:    1259374
L1I AVERAGE MISS LATENCY: 14.6194 cycles
L1I

SHEET
L1I-total_access : 19000410
L1I-total_hit : 14182245
L1I-total_miss : 4818165
L1I-load_access : 9509480
L1I-load_hit : 8833257
L1I-load_miss : 676223
L1I-rfo_access : 0
L1I-rfo_hit : 0
L1I-rfo_miss : 0
L1I-prefetch_access : 9490930
L1I-prefetch_hit : 5348988
L1I-prefetch_miss : 4141942
L1I-writeback_access : 0
L1I-writeback_hit : 0
L1I-writeback_miss : 0
L1I-prefetch_requested : 10494321
L1I-prefetch_issued : 10327196
L1I-prefetch_useful : 2882570
L1I-prefetch_useless : 1259374
L1I-Avg_miss_latency : 14.6194
L1I-Morteza_fill_l2_prefetches : 0

L2C TOTAL     ACCESS:    8312252  HIT:    8171113  MISS:     141139
L2C LOAD      ACCESS:    1146414  HIT:    1099992  MISS:      46422
L2C RFO       ACCESS:     141548  HIT:     133005  MISS:       8543
L2C PREFETCH  ACCESS:    6673341  HIT:    6588063  MISS:      85278
L2C WRITEBACK ACCESS:     350949  HIT:     350053  MISS:        896
L2C PREFETCH  REQUESTED:    6957879  ISSUED:    6944361  USEFUL:       3536  USELESS:      80665
L2C AVERAGE MISS LATENCY: 38.7093 cycles
L2C

SHEET
L2C-total_access : 8312252
L2C-total_hit : 8171113
L2C-total_miss : 141139
L2C-load_access : 1146414
L2C-load_hit : 1099992
L2C-load_miss : 46422
L2C-rfo_access : 141548
L2C-rfo_hit : 133005
L2C-rfo_miss : 8543
L2C-prefetch_access : 6673341
L2C-prefetch_hit : 6588063
L2C-prefetch_miss : 85278
L2C-writeback_access : 350949
L2C-writeback_hit : 350053
L2C-writeback_miss : 896
L2C-prefetch_requested : 6957879
L2C-prefetch_issued : 6944361
L2C-prefetch_useful : 3536
L2C-prefetch_useless : 80665
L2C-Avg_miss_latency : 38.7093
L2C-Morteza_fill_l2_prefetches : 1740974

LLC TOTAL     ACCESS:    1981263  HIT:    1968961  MISS:      12302
LLC LOAD      ACCESS:      46340  HIT:      43754  MISS:       2586
LLC RFO       ACCESS:       8543  HIT:       8313  MISS:        230
LLC PREFETCH  ACCESS:    1885349  HIT:    1875924  MISS:       9425
LLC WRITEBACK ACCESS:      41031  HIT:      40970  MISS:         61
LLC PREFETCH  REQUESTED:          0  ISSUED:          0  USEFUL:       3057  USELESS:       3894
LLC AVERAGE MISS LATENCY: 149.879 cycles
LLC

SHEET
LLC-total_access : 1981263
LLC-total_hit : 1968961
LLC-total_miss : 12302
LLC-load_access : 46340
LLC-load_hit : 43754
LLC-load_miss : 2586
LLC-rfo_access : 8543
LLC-rfo_hit : 8313
LLC-rfo_miss : 230
LLC-prefetch_access : 1885349
LLC-prefetch_hit : 1875924
LLC-prefetch_miss : 9425
LLC-writeback_access : 41031
LLC-writeback_hit : 40970
LLC-writeback_miss : 61
LLC-prefetch_requested : 0
LLC-prefetch_issued : 0
LLC-prefetch_useful : 3057
LLC-prefetch_useless : 3894
LLC-Avg_miss_latency : 149.879
LLC-Morteza_fill_l2_prefetches : 1796872

Major fault: 0 Minor fault: 1170



Printing Logs
statHeadFound: 806692
statHeadMissing: 459665
statStreamBufferHit: 13862733
statPrefetchEntryFound: 6834987
statCompactorMatch: 12071663
statStreamTrackerLookup: 15129090
statRecord: 3057427
statGetPointer: 1266357
statEnqueuePrefetch: 20601999
statPrefetchQueueIsFull: 16026
StreamBufferHitRate: 0.916297
Regions' size: 1331
next_region_correct: 2362525
next_region_wrong: 693553
next_region_correct_prediction: 0.773058
statStreamBufferLookups: 1089294480
statL1iLookups: 164815992
statCompactorLookups: 544647240
morteza: start

SHEET
mana_table_access_counter : 9908422
hobp_table_access_counter : 24146106
sab_access_counter : 20697720
srq_access_counter : 16681733

morteza: end
CPU 0 L1D next line prefetcher final stats

DRAM Statistics
 CHANNEL 0
 RQ ROW_BUFFER_HIT:       3601  ROW_BUFFER_MISS:       8635
 DBUS_CONGESTED:       5724
 WQ ROW_BUFFER_HIT:       1000  ROW_BUFFER_MISS:       2555  FULL:          0

 AVG_CONGESTED_CYCLE: 5

CPU 0 Branch Prediction Accuracy: 99.926% MPKI: 0.14472 Average ROB Occupancy at Mispredict: 192.346

Branch types
NOT_BRANCH: 40220896 80.4418%
BRANCH_DIRECT_JUMP: 771319 1.54264%
BRANCH_INDIRECT: 108663 0.217326%
BRANCH_CONDITIONAL: 6375022 12.75%
BRANCH_DIRECT_CALL: 1049632 2.09926%
BRANCH_INDIRECT_CALL: 212280 0.42456%
BRANCH_RETURN: 1261922 2.52384%
BRANCH_OTHER: 0 0%

