Initialize SIGNATURE TABLE
ST_SET: 1
ST_WAY: 256
ST_TAG_BIT: 16
ST_TAG_MASK: ffff

Initialize PATTERN TABLE
PT_SET: 512
PT_WAY: 4
SIG_DELTA_BIT: 7
C_SIG_BIT: 4
C_DELTA_BIT: 4

Initialize PREFETCH FILTER
FILTER_SET: 1024
MANA initialize 
tds: 2 tdm: 2
size MANA SINGLE: 15.5 KB
size MANA NULTIPLE: 0 KB
size HOBPT: 0.703125 KB
size SRQ: 0.14502 KB
size SABs: 0.290039 KB
size prefetch queue: 0.453125 KB
total: 17.0913 KB

*** ChampSim Multicore Out-of-Order Simulator ***

Warmup Instructions: 50000000
Simulation Instructions: 50000000
Number of CPUs: 1
LLC sets: 2048
LLC ways: 16
Off-chip DRAM Size: 4096 MB Channels: 1 Width: 64-bit Data Rate: 3200 MT/s

CPU 0 runs /home/mbaradaran/ChampSim/dpc3_traces/spec_gobmk_002.champsimtrace.xz
CPU 0 L1D next line prefetcher
Heartbeat CPU 0 instructions: 10000001 cycles: 3287567 heartbeat IPC: 3.04176 cumulative IPC: 3.04176 (Simulation time: 0 hr 1 min 11 sec) 
Heartbeat CPU 0 instructions: 20000000 cycles: 6619197 heartbeat IPC: 3.00153 cumulative IPC: 3.02151 (Simulation time: 0 hr 2 min 18 sec) 
Heartbeat CPU 0 instructions: 30000000 cycles: 9957274 heartbeat IPC: 2.99574 cumulative IPC: 3.01287 (Simulation time: 0 hr 3 min 24 sec) 
Heartbeat CPU 0 instructions: 40000000 cycles: 13266788 heartbeat IPC: 3.02159 cumulative IPC: 3.01505 (Simulation time: 0 hr 4 min 33 sec) 
Heartbeat CPU 0 instructions: 50000003 cycles: 16530408 heartbeat IPC: 3.06408 cumulative IPC: 3.02473 (Simulation time: 0 hr 5 min 39 sec) 

Warmup complete CPU 0 instructions: 50000003 cycles: 16530408 (Simulation time: 0 hr 5 min 39 sec) 

Heartbeat CPU 0 instructions: 60000003 cycles: 24214063 heartbeat IPC: 1.30146 cumulative IPC: 1.30146 (Simulation time: 0 hr 6 min 30 sec) 
Heartbeat CPU 0 instructions: 70000001 cycles: 31847026 heartbeat IPC: 1.31011 cumulative IPC: 1.30577 (Simulation time: 0 hr 7 min 20 sec) 
Heartbeat CPU 0 instructions: 80000000 cycles: 39346070 heartbeat IPC: 1.3335 cumulative IPC: 1.31489 (Simulation time: 0 hr 8 min 9 sec) 
Heartbeat CPU 0 instructions: 90000001 cycles: 47123414 heartbeat IPC: 1.28579 cumulative IPC: 1.30749 (Simulation time: 0 hr 8 min 55 sec) 
Heartbeat CPU 0 instructions: 100000003 cycles: 55175518 heartbeat IPC: 1.24191 cumulative IPC: 1.29382 (Simulation time: 0 hr 9 min 43 sec) 
Finished CPU 0 instructions: 50000000 cycles: 38645110 cumulative IPC: 1.29382 (Simulation time: 0 hr 9 min 43 sec) 

ChampSim completed all CPUs

Region of Interest Statistics

CPU 0 cumulative IPC: 1.29382 instructions: 50000000 cycles: 38645110

SHEET
IPC : 1.29382

L1D TOTAL     ACCESS:   17733764  HIT:   17610647  MISS:     123117
L1D LOAD      ACCESS:    6711100  HIT:    6676913  MISS:      34187
L1D RFO       ACCESS:    4390542  HIT:    4347872  MISS:      42670
L1D PREFETCH  ACCESS:    6632122  HIT:    6585862  MISS:      46260
L1D WRITEBACK ACCESS:          0  HIT:          0  MISS:          0
L1D PREFETCH  REQUESTED:    6713513  ISSUED:    6646076  USEFUL:      17204  USELESS:      29238
L1D AVERAGE MISS LATENCY: 50.2867 cycles
L1D

SHEET
L1D-total_access : 17733764
L1D-total_hit : 17610647
L1D-total_miss : 123117
L1D-load_access : 6711100
L1D-load_hit : 6676913
L1D-load_miss : 34187
L1D-rfo_access : 4390542
L1D-rfo_hit : 4347872
L1D-rfo_miss : 42670
L1D-prefetch_access : 6632122
L1D-prefetch_hit : 6585862
L1D-prefetch_miss : 46260
L1D-writeback_access : 0
L1D-writeback_hit : 0
L1D-writeback_miss : 0
L1D-prefetch_requested : 6713513
L1D-prefetch_issued : 6646076
L1D-prefetch_useful : 17204
L1D-prefetch_useless : 29238
L1D-Avg_miss_latency : 50.2867
L1D-Morteza_fill_l2_prefetches : 0

L1I TOTAL     ACCESS:   22185013  HIT:   20414313  MISS:    1770700
L1I LOAD      ACCESS:    8879648  HIT:    8599572  MISS:     280076
L1I RFO       ACCESS:          0  HIT:          0  MISS:          0
L1I PREFETCH  ACCESS:   13305365  HIT:   11814741  MISS:    1490624
L1I WRITEBACK ACCESS:          0  HIT:          0  MISS:          0
L1I PREFETCH  REQUESTED:   15428595  ISSUED:   14355674  USEFUL:     843390  USELESS:     647218
L1I AVERAGE MISS LATENCY: 14.3625 cycles
L1I

SHEET
L1I-total_access : 22185013
L1I-total_hit : 20414313
L1I-total_miss : 1770700
L1I-load_access : 8879648
L1I-load_hit : 8599572
L1I-load_miss : 280076
L1I-rfo_access : 0
L1I-rfo_hit : 0
L1I-rfo_miss : 0
L1I-prefetch_access : 13305365
L1I-prefetch_hit : 11814741
L1I-prefetch_miss : 1490624
L1I-writeback_access : 0
L1I-writeback_hit : 0
L1I-writeback_miss : 0
L1I-prefetch_requested : 15428595
L1I-prefetch_issued : 14355674
L1I-prefetch_useful : 843390
L1I-prefetch_useless : 647218
L1I-Avg_miss_latency : 14.3625
L1I-Morteza_fill_l2_prefetches : 0

L2C TOTAL     ACCESS:    2801470  HIT:    2763868  MISS:      37602
L2C LOAD      ACCESS:     270627  HIT:     256729  MISS:      13898
L2C RFO       ACCESS:      42575  HIT:      39829  MISS:       2746
L2C PREFETCH  ACCESS:    2414070  HIT:    2393246  MISS:      20824
L2C WRITEBACK ACCESS:      74198  HIT:      74064  MISS:        134
L2C PREFETCH  REQUESTED:    1690949  ISSUED:    1690924  USEFUL:       2293  USELESS:      18881
L2C AVERAGE MISS LATENCY: 124.692 cycles
L2C

SHEET
L2C-total_access : 2801470
L2C-total_hit : 2763868
L2C-total_miss : 37602
L2C-load_access : 270627
L2C-load_hit : 256729
L2C-load_miss : 13898
L2C-rfo_access : 42575
L2C-rfo_hit : 39829
L2C-rfo_miss : 2746
L2C-prefetch_access : 2414070
L2C-prefetch_hit : 2393246
L2C-prefetch_miss : 20824
L2C-writeback_access : 74198
L2C-writeback_hit : 74064
L2C-writeback_miss : 134
L2C-prefetch_requested : 1690949
L2C-prefetch_issued : 1690924
L2C-prefetch_useful : 2293
L2C-prefetch_useless : 18881
L2C-Avg_miss_latency : 124.692
L2C-Morteza_fill_l2_prefetches : 842544

LLC TOTAL     ACCESS:     154354  HIT:     120475  MISS:      33879
LLC LOAD      ACCESS:      13897  HIT:       5206  MISS:       8691
LLC RFO       ACCESS:       2746  HIT:       1130  MISS:       1616
LLC PREFETCH  ACCESS:     119701  HIT:      96702  MISS:      22999
LLC WRITEBACK ACCESS:      18010  HIT:      17437  MISS:        573
LLC PREFETCH  REQUESTED:          0  ISSUED:          0  USEFUL:       2314  USELESS:      20196
LLC AVERAGE MISS LATENCY: 183.726 cycles
LLC

SHEET
LLC-total_access : 154354
LLC-total_hit : 120475
LLC-total_miss : 33879
LLC-load_access : 13897
LLC-load_hit : 5206
LLC-load_miss : 8691
LLC-rfo_access : 2746
LLC-rfo_hit : 1130
LLC-rfo_miss : 1616
LLC-prefetch_access : 119701
LLC-prefetch_hit : 96702
LLC-prefetch_miss : 22999
LLC-writeback_access : 18010
LLC-writeback_hit : 17437
LLC-writeback_miss : 573
LLC-prefetch_requested : 0
LLC-prefetch_issued : 0
LLC-prefetch_useful : 2314
LLC-prefetch_useless : 20196
LLC-Avg_miss_latency : 183.726
LLC-Morteza_fill_l2_prefetches : 84534

Major fault: 0 Minor fault: 2776



Printing Logs
statHeadFound: 1174684
statHeadMissing: 649418
statStreamBufferHit: 11001955
statPrefetchEntryFound: 6656870
statCompactorMatch: 11403306
statStreamTrackerLookup: 12826057
statRecord: 1422751
statGetPointer: 1824102
statEnqueuePrefetch: 27187521
statPrefetchQueueIsFull: 446413
StreamBufferHitRate: 0.857782
Regions' size: 3191
next_region_correct: 768715
next_region_wrong: 650827
next_region_correct_prediction: 0.541523
statStreamBufferLookups: 923476104
statL1iLookups: 217500168
statCompactorLookups: 461738052
morteza: start

SHEET
mana_table_access_counter : 8526016
hobp_table_access_counter : 20090653
sab_access_counter : 17658825
srq_access_counter : 13028427

morteza: end
CPU 0 L1D next line prefetcher final stats

DRAM Statistics
 CHANNEL 0
 RQ ROW_BUFFER_HIT:       2659  ROW_BUFFER_MISS:      30647
 DBUS_CONGESTED:      17103
 WQ ROW_BUFFER_HIT:        801  ROW_BUFFER_MISS:      13328  FULL:          0

 AVG_CONGESTED_CYCLE: 4

CPU 0 Branch Prediction Accuracy: 93.9974% MPKI: 10.2447 Average ROB Occupancy at Mispredict: 37.9299

Branch types
NOT_BRANCH: 41466057 82.9321%
BRANCH_DIRECT_JUMP: 464313 0.928626%
BRANCH_INDIRECT: 32 6.4e-05%
BRANCH_CONDITIONAL: 7069453 14.1389%
BRANCH_DIRECT_CALL: 499587 0.999174%
BRANCH_INDIRECT_CALL: 342 0.000684%
BRANCH_RETURN: 499906 0.999812%
BRANCH_OTHER: 0 0%

