Initialize SIGNATURE TABLE
ST_SET: 1
ST_WAY: 256
ST_TAG_BIT: 16
ST_TAG_MASK: ffff

Initialize PATTERN TABLE
PT_SET: 512
PT_WAY: 4
SIG_DELTA_BIT: 7
C_SIG_BIT: 4
C_DELTA_BIT: 4

Initialize PREFETCH FILTER
FILTER_SET: 1024
MANA initialize 
tds: 2 tdm: 2
size MANA SINGLE: 15.5 KB
size MANA NULTIPLE: 0 KB
size HOBPT: 0.703125 KB
size SRQ: 0.14502 KB
size SABs: 0.290039 KB
size prefetch queue: 0.453125 KB
total: 17.0913 KB

*** ChampSim Multicore Out-of-Order Simulator ***

Warmup Instructions: 50000000
Simulation Instructions: 50000000
Number of CPUs: 1
LLC sets: 2048
LLC ways: 16
Off-chip DRAM Size: 4096 MB Channels: 1 Width: 64-bit Data Rate: 3200 MT/s

CPU 0 runs /home/mbaradaran/ChampSim/dpc3_traces/spec_gcc_002.champsimtrace.xz
CPU 0 L1D next line prefetcher
Heartbeat CPU 0 instructions: 10000002 cycles: 3552470 heartbeat IPC: 2.81494 cumulative IPC: 2.81494 (Simulation time: 0 hr 1 min 23 sec) 
Heartbeat CPU 0 instructions: 20000000 cycles: 7131816 heartbeat IPC: 2.79381 cumulative IPC: 2.80433 (Simulation time: 0 hr 2 min 35 sec) 
Heartbeat CPU 0 instructions: 30000000 cycles: 10746850 heartbeat IPC: 2.76623 cumulative IPC: 2.79152 (Simulation time: 0 hr 3 min 52 sec) 
Heartbeat CPU 0 instructions: 40000000 cycles: 14302317 heartbeat IPC: 2.81257 cumulative IPC: 2.79675 (Simulation time: 0 hr 5 min 3 sec) 
Heartbeat CPU 0 instructions: 50000002 cycles: 17798437 heartbeat IPC: 2.86031 cumulative IPC: 2.80924 (Simulation time: 0 hr 6 min 10 sec) 

Warmup complete CPU 0 instructions: 50000002 cycles: 17798437 (Simulation time: 0 hr 6 min 10 sec) 

Heartbeat CPU 0 instructions: 60000001 cycles: 57902911 heartbeat IPC: 0.249349 cumulative IPC: 0.249349 (Simulation time: 0 hr 8 min 54 sec) 
Heartbeat CPU 0 instructions: 70000001 cycles: 90024411 heartbeat IPC: 0.311318 cumulative IPC: 0.276909 (Simulation time: 0 hr 11 min 12 sec) 
Heartbeat CPU 0 instructions: 80000002 cycles: 139273380 heartbeat IPC: 0.20305 cumulative IPC: 0.246965 (Simulation time: 0 hr 14 min 11 sec) 
Heartbeat CPU 0 instructions: 90000001 cycles: 184143105 heartbeat IPC: 0.222867 cumulative IPC: 0.240465 (Simulation time: 0 hr 16 min 55 sec) 
Heartbeat CPU 0 instructions: 100000000 cycles: 216288580 heartbeat IPC: 0.311086 cumulative IPC: 0.251902 (Simulation time: 0 hr 19 min 6 sec) 
Finished CPU 0 instructions: 50000002 cycles: 198490151 cumulative IPC: 0.251902 (Simulation time: 0 hr 19 min 6 sec) 

ChampSim completed all CPUs

Region of Interest Statistics

CPU 0 cumulative IPC: 0.251902 instructions: 50000002 cycles: 198490151

SHEET
IPC : 0.251902

L1D TOTAL     ACCESS:   18341883  HIT:   13108204  MISS:    5233679
L1D LOAD      ACCESS:    6407790  HIT:    5351410  MISS:    1056380
L1D RFO       ACCESS:    7036243  HIT:    3435478  MISS:    3600765
L1D PREFETCH  ACCESS:    4897850  HIT:    4321316  MISS:     576534
L1D WRITEBACK ACCESS:          0  HIT:          0  MISS:          0
L1D PREFETCH  REQUESTED:    6428295  ISSUED:    6359419  USEFUL:     416769  USELESS:     159981
L1D AVERAGE MISS LATENCY: 334.51 cycles
L1D

SHEET
L1D-total_access : 18341883
L1D-total_hit : 13108204
L1D-total_miss : 5233679
L1D-load_access : 6407790
L1D-load_hit : 5351410
L1D-load_miss : 1056380
L1D-rfo_access : 7036243
L1D-rfo_hit : 3435478
L1D-rfo_miss : 3600765
L1D-prefetch_access : 4897850
L1D-prefetch_hit : 4321316
L1D-prefetch_miss : 576534
L1D-writeback_access : 0
L1D-writeback_hit : 0
L1D-writeback_miss : 0
L1D-prefetch_requested : 6428295
L1D-prefetch_issued : 6359419
L1D-prefetch_useful : 416769
L1D-prefetch_useless : 159981
L1D-Avg_miss_latency : 334.51
L1D-Morteza_fill_l2_prefetches : 0

L1I TOTAL     ACCESS:   17169451  HIT:   16032159  MISS:    1137292
L1I LOAD      ACCESS:   12089101  HIT:   11856648  MISS:     232453
L1I RFO       ACCESS:          0  HIT:          0  MISS:          0
L1I PREFETCH  ACCESS:    5080350  HIT:    4175511  MISS:     904839
L1I WRITEBACK ACCESS:          0  HIT:          0  MISS:          0
L1I PREFETCH  REQUESTED:    6319574  ISSUED:    5513900  USEFUL:     502863  USELESS:     401936
L1I AVERAGE MISS LATENCY: 53.1141 cycles
L1I

SHEET
L1I-total_access : 17169451
L1I-total_hit : 16032159
L1I-total_miss : 1137292
L1I-load_access : 12089101
L1I-load_hit : 11856648
L1I-load_miss : 232453
L1I-rfo_access : 0
L1I-rfo_hit : 0
L1I-rfo_miss : 0
L1I-prefetch_access : 5080350
L1I-prefetch_hit : 4175511
L1I-prefetch_miss : 904839
L1I-writeback_access : 0
L1I-writeback_hit : 0
L1I-writeback_miss : 0
L1I-prefetch_requested : 6319574
L1I-prefetch_issued : 5513900
L1I-prefetch_useful : 502863
L1I-prefetch_useless : 401936
L1I-Avg_miss_latency : 53.1141
L1I-Morteza_fill_l2_prefetches : 0

L2C TOTAL     ACCESS:   10573935  HIT:    5277281  MISS:    5296654
L2C LOAD      ACCESS:     433103  HIT:     221790  MISS:     211313
L2C RFO       ACCESS:    3599139  HIT:      12443  MISS:    3586696
L2C PREFETCH  ACCESS:    2816184  HIT:    1317680  MISS:    1498504
L2C WRITEBACK ACCESS:    3725509  HIT:    3725368  MISS:        141
L2C PREFETCH  REQUESTED:    3308408  ISSUED:    3308346  USEFUL:      56359  USELESS:    1442361
L2C AVERAGE MISS LATENCY: 345.427 cycles
L2C

SHEET
L2C-total_access : 10573935
L2C-total_hit : 5277281
L2C-total_miss : 5296654
L2C-load_access : 433103
L2C-load_hit : 221790
L2C-load_miss : 211313
L2C-rfo_access : 3599139
L2C-rfo_hit : 12443
L2C-rfo_miss : 3586696
L2C-prefetch_access : 2816184
L2C-prefetch_hit : 1317680
L2C-prefetch_miss : 1498504
L2C-writeback_access : 3725509
L2C-writeback_hit : 3725368
L2C-writeback_miss : 141
L2C-prefetch_requested : 3308408
L2C-prefetch_issued : 3308346
L2C-prefetch_useful : 56359
L2C-prefetch_useless : 1442361
L2C-Avg_miss_latency : 345.427
L2C-Morteza_fill_l2_prefetches : 382843

LLC TOTAL     ACCESS:   10017641  HIT:    6165723  MISS:    3851918
LLC LOAD      ACCESS:     211127  HIT:     125228  MISS:      85899
LLC RFO       ACCESS:    3586694  HIT:     597668  MISS:    2989026
LLC PREFETCH  ACCESS:    2553454  HIT:    1776461  MISS:     776993
LLC WRITEBACK ACCESS:    3666366  HIT:    3666366  MISS:          0
LLC PREFETCH  REQUESTED:          0  ISSUED:          0  USEFUL:     152119  USELESS:     620088
LLC AVERAGE MISS LATENCY: 456.122 cycles
LLC

SHEET
LLC-total_access : 10017641
LLC-total_hit : 6165723
LLC-total_miss : 3851918
LLC-load_access : 211127
LLC-load_hit : 125228
LLC-load_miss : 85899
LLC-rfo_access : 3586695
LLC-rfo_hit : 597668
LLC-rfo_miss : 2989027
LLC-prefetch_access : 2553454
LLC-prefetch_hit : 1776461
LLC-prefetch_miss : 776993
LLC-writeback_access : 3666366
LLC-writeback_hit : 3666366
LLC-writeback_miss : 0
LLC-prefetch_requested : 0
LLC-prefetch_issued : 0
LLC-prefetch_useful : 152119
LLC-prefetch_useless : 620088
LLC-Avg_miss_latency : 456.122
LLC-Morteza_fill_l2_prefetches : 1011510

Major fault: 0 Minor fault: 4152



Printing Logs
statHeadFound: 476584
statHeadMissing: 4546200
statStreamBufferHit: 8081652
statPrefetchEntryFound: 3329745
statCompactorMatch: 12210356
statStreamTrackerLookup: 13104436
statRecord: 894080
statGetPointer: 5022784
statEnqueuePrefetch: 10487131
statPrefetchQueueIsFull: 52050
StreamBufferHitRate: 0.616711
Regions' size: 1450
next_region_correct: 531073
next_region_wrong: 361539
next_region_correct_prediction: 0.594965
statStreamBufferLookups: 943519392
statL1iLookups: 83897048
statCompactorLookups: 471759696
morteza: start

SHEET
mana_table_access_counter : 4275857
hobp_table_access_counter : 27049220
sab_access_counter : 11411397
srq_access_counter : 12233021

morteza: end
CPU 0 L1D next line prefetcher final stats

DRAM Statistics
 CHANNEL 0
 RQ ROW_BUFFER_HIT:    1013787  ROW_BUFFER_MISS:    2835212
 DBUS_CONGESTED:    5530300
 WQ ROW_BUFFER_HIT:     946234  ROW_BUFFER_MISS:    2218819  FULL:          0

 AVG_CONGESTED_CYCLE: 6

CPU 0 Branch Prediction Accuracy: 99.5987% MPKI: 0.82446 Average ROB Occupancy at Mispredict: 117.073

Branch types
NOT_BRANCH: 39726805 79.4536%
BRANCH_DIRECT_JUMP: 391438 0.782876%
BRANCH_INDIRECT: 62076 0.124152%
BRANCH_CONDITIONAL: 8421541 16.8431%
BRANCH_DIRECT_CALL: 672962 1.34592%
BRANCH_INDIRECT_CALL: 26115 0.05223%
BRANCH_RETURN: 699082 1.39816%
BRANCH_OTHER: 0 0%

