Initialize SIGNATURE TABLE
ST_SET: 1
ST_WAY: 256
ST_TAG_BIT: 16
ST_TAG_MASK: ffff

Initialize PATTERN TABLE
PT_SET: 512
PT_WAY: 4
SIG_DELTA_BIT: 7
C_SIG_BIT: 4
C_DELTA_BIT: 4

Initialize PREFETCH FILTER
FILTER_SET: 1024

*** ChampSim Multicore Out-of-Order Simulator ***

Warmup Instructions: 50000000
Simulation Instructions: 50000000
Number of CPUs: 1
LLC sets: 2048
LLC ways: 16
Off-chip DRAM Size: 4096 MB Channels: 1 Width: 64-bit Data Rate: 3200 MT/s

CPU 0 runs /home/mbaradaran/ChampSim/dpc3_traces/client_007.champsimtrace.xz
CPU 0 L1D next line prefetcher
Heartbeat CPU 0 instructions: 10000001 cycles: 3642439 heartbeat IPC: 2.74541 cumulative IPC: 2.74541 (Simulation time: 0 hr 1 min 29 sec) 
Heartbeat CPU 0 instructions: 20000003 cycles: 7034660 heartbeat IPC: 2.94792 cumulative IPC: 2.84307 (Simulation time: 0 hr 3 min 0 sec) 
Heartbeat CPU 0 instructions: 30000000 cycles: 10906682 heartbeat IPC: 2.58263 cumulative IPC: 2.75061 (Simulation time: 0 hr 4 min 58 sec) 
Heartbeat CPU 0 instructions: 40000003 cycles: 15067682 heartbeat IPC: 2.40327 cumulative IPC: 2.65469 (Simulation time: 0 hr 6 min 45 sec) 
Heartbeat CPU 0 instructions: 50000002 cycles: 18473287 heartbeat IPC: 2.93634 cumulative IPC: 2.70661 (Simulation time: 0 hr 8 min 24 sec) 

Warmup complete CPU 0 instructions: 50000002 cycles: 18473287 (Simulation time: 0 hr 8 min 24 sec) 

Heartbeat CPU 0 instructions: 60000003 cycles: 25966766 heartbeat IPC: 1.33449 cumulative IPC: 1.33449 (Simulation time: 0 hr 9 min 57 sec) 
Heartbeat CPU 0 instructions: 70000003 cycles: 35041480 heartbeat IPC: 1.10196 cumulative IPC: 1.20713 (Simulation time: 0 hr 11 min 53 sec) 
Heartbeat CPU 0 instructions: 80000002 cycles: 40733145 heartbeat IPC: 1.75695 cumulative IPC: 1.34772 (Simulation time: 0 hr 13 min 13 sec) 
Heartbeat CPU 0 instructions: 90000002 cycles: 49196248 heartbeat IPC: 1.1816 cumulative IPC: 1.30196 (Simulation time: 0 hr 14 min 30 sec) 
Heartbeat CPU 0 instructions: 100000002 cycles: 58295330 heartbeat IPC: 1.09901 cumulative IPC: 1.25559 (Simulation time: 0 hr 16 min 5 sec) 
Finished CPU 0 instructions: 50000000 cycles: 39822043 cumulative IPC: 1.25559 (Simulation time: 0 hr 16 min 5 sec) 

ChampSim completed all CPUs

Region of Interest Statistics

CPU 0 cumulative IPC: 1.25559 instructions: 50000000 cycles: 39822043

SHEET
IPC : 1.25559

L1D TOTAL     ACCESS:   21612733  HIT:   20442593  MISS:    1170140
L1D LOAD      ACCESS:    8569216  HIT:    8034668  MISS:     534548
L1D RFO       ACCESS:    4876650  HIT:    4785596  MISS:      91054
L1D PREFETCH  ACCESS:    8166867  HIT:    7622329  MISS:     544538
L1D WRITEBACK ACCESS:          0  HIT:          0  MISS:          0
L1D PREFETCH  REQUESTED:    8623220  ISSUED:    8384238  USEFUL:     163652  USELESS:     380902
L1D AVERAGE MISS LATENCY: 34.4599 cycles
L1D

SHEET
L1D-total_access : 21612733
L1D-total_hit : 20442593
L1D-total_miss : 1170140
L1D-load_access : 8569216
L1D-load_hit : 8034668
L1D-load_miss : 534548
L1D-rfo_access : 4876650
L1D-rfo_hit : 4785596
L1D-rfo_miss : 91054
L1D-prefetch_access : 8166867
L1D-prefetch_hit : 7622329
L1D-prefetch_miss : 544538
L1D-writeback_access : 0
L1D-writeback_hit : 0
L1D-writeback_miss : 0
L1D-prefetch_requested : 8623220
L1D-prefetch_issued : 8384238
L1D-prefetch_useful : 163652
L1D-prefetch_useless : 380902
L1D-Avg_miss_latency : 34.4599

L1I TOTAL     ACCESS:   12423155  HIT:   11117468  MISS:    1305687
L1I LOAD      ACCESS:    9055501  HIT:    8525733  MISS:     529768
L1I RFO       ACCESS:          0  HIT:          0  MISS:          0
L1I PREFETCH  ACCESS:    3367654  HIT:    2591735  MISS:     775919
L1I WRITEBACK ACCESS:          0  HIT:          0  MISS:          0
L1I PREFETCH  REQUESTED:    3665932  ISSUED:    3665932  USEFUL:     612367  USELESS:     163565
L1I AVERAGE MISS LATENCY: 13.3309 cycles
L1I

SHEET
L1I-total_access : 12423155
L1I-total_hit : 11117468
L1I-total_miss : 1305687
L1I-load_access : 9055501
L1I-load_hit : 8525733
L1I-load_miss : 529768
L1I-rfo_access : 0
L1I-rfo_hit : 0
L1I-rfo_miss : 0
L1I-prefetch_access : 3367654
L1I-prefetch_hit : 2591735
L1I-prefetch_miss : 775919
L1I-writeback_access : 0
L1I-writeback_hit : 0
L1I-writeback_miss : 0
L1I-prefetch_requested : 3665932
L1I-prefetch_issued : 3665932
L1I-prefetch_useful : 612367
L1I-prefetch_useless : 163565
L1I-Avg_miss_latency : 13.3309

L2C TOTAL     ACCESS:    3762401  HIT:    3554732  MISS:     207669
L2C LOAD      ACCESS:     863092  HIT:     787502  MISS:      75590
L2C RFO       ACCESS:      89701  HIT:      48116  MISS:      41585
L2C PREFETCH  ACCESS:    2481853  HIT:    2391556  MISS:      90297
L2C WRITEBACK ACCESS:     327755  HIT:     327558  MISS:        197
L2C PREFETCH  REQUESTED:    2749783  ISSUED:    2748128  USEFUL:       9130  USELESS:      79482
L2C AVERAGE MISS LATENCY: 121.775 cycles
L2C

SHEET
L2C-total_access : 3762401
L2C-total_hit : 3554732
L2C-total_miss : 207669
L2C-load_access : 863092
L2C-load_hit : 787502
L2C-load_miss : 75590
L2C-rfo_access : 89701
L2C-rfo_hit : 48116
L2C-rfo_miss : 41585
L2C-prefetch_access : 2481853
L2C-prefetch_hit : 2391556
L2C-prefetch_miss : 90297
L2C-writeback_access : 327755
L2C-writeback_hit : 327558
L2C-writeback_miss : 197
L2C-prefetch_requested : 2749783
L2C-prefetch_issued : 2748128
L2C-prefetch_useful : 9130
L2C-prefetch_useless : 79482
L2C-Avg_miss_latency : 121.775

LLC TOTAL     ACCESS:    1037060  HIT:     866675  MISS:     170385
LLC LOAD      ACCESS:      75478  HIT:      37589  MISS:      37889
LLC RFO       ACCESS:      41584  HIT:       6961  MISS:      34623
LLC PREFETCH  ACCESS:     845420  HIT:     747865  MISS:      97555
LLC WRITEBACK ACCESS:      74578  HIT:      74260  MISS:        318
LLC PREFETCH  REQUESTED:          0  ISSUED:          0  USEFUL:      19432  USELESS:      76773
LLC AVERAGE MISS LATENCY: 176.761 cycles
LLC

SHEET
LLC-total_access : 1037060
LLC-total_hit : 866675
LLC-total_miss : 170385
LLC-load_access : 75478
LLC-load_hit : 37589
LLC-load_miss : 37889
LLC-rfo_access : 41584
LLC-rfo_hit : 6961
LLC-rfo_miss : 34623
LLC-prefetch_access : 845420
LLC-prefetch_hit : 747865
LLC-prefetch_miss : 97555
LLC-writeback_access : 74578
LLC-writeback_hit : 74260
LLC-writeback_miss : 318
LLC-prefetch_requested : 0
LLC-prefetch_issued : 0
LLC-prefetch_useful : 19432
LLC-prefetch_useless : 76773
LLC-Avg_miss_latency : 176.761

Major fault: 0 Minor fault: 4405
num_of_hits: 5407199
num_of_misses: 136983
hit_rate: 0.975292
observed_signatures: 31034
RAS addresses: 5188
branch_addresses: 24078
RAS match: 1374827	 RAS_mismatches: 11131	 accuracy: 0.991969

 morteza stats start 

SHEET
RAS_access_cntr : 13314704
current_block_access_cntr : 40737430
table_access_cntr : 5475702
last_block_access_cntr : 40737430
last_signature_access_cntr : 5543848
miss_log_access_cntr : 1444149
prefetch_queue_access_cntr : 10163514
signature_access_cntr : 8315772
miss log count : 94


morteza stats endCPU 0 L1D next line prefetcher final stats

DRAM Statistics
 CHANNEL 0
 RQ ROW_BUFFER_HIT:      35286  ROW_BUFFER_MISS:     134774
 DBUS_CONGESTED:      92203
 WQ ROW_BUFFER_HIT:      13329  ROW_BUFFER_MISS:      45157  FULL:          0

 AVG_CONGESTED_CYCLE: 5

CPU 0 Branch Prediction Accuracy: 98.8607% MPKI: 1.8623 Average ROB Occupancy at Mispredict: 102.531

Branch types
NOT_BRANCH: 41826773 83.6535%
BRANCH_DIRECT_JUMP: 735330 1.47066%
BRANCH_INDIRECT: 269194 0.538388%
BRANCH_CONDITIONAL: 5957947 11.9159%
BRANCH_DIRECT_CALL: 368758 0.737516%
BRANCH_INDIRECT_CALL: 226975 0.45395%
BRANCH_RETURN: 614696 1.22939%
BRANCH_OTHER: 0 0%

