Initialize SIGNATURE TABLE
ST_SET: 1
ST_WAY: 256
ST_TAG_BIT: 16
ST_TAG_MASK: ffff

Initialize PATTERN TABLE
PT_SET: 512
PT_WAY: 4
SIG_DELTA_BIT: 7
C_SIG_BIT: 4
C_DELTA_BIT: 4

Initialize PREFETCH FILTER
FILTER_SET: 1024

*** ChampSim Multicore Out-of-Order Simulator ***

Warmup Instructions: 50000000
Simulation Instructions: 50000000
Number of CPUs: 1
LLC sets: 2048
LLC ways: 16
Off-chip DRAM Size: 4096 MB Channels: 1 Width: 64-bit Data Rate: 3200 MT/s

CPU 0 runs /home/mbaradaran/ChampSim/dpc3_traces/client_008.champsimtrace.xz
CPU 0 L1D next line prefetcher
Heartbeat CPU 0 instructions: 10000001 cycles: 3753466 heartbeat IPC: 2.6642 cumulative IPC: 2.6642 (Simulation time: 0 hr 1 min 42 sec) 
Heartbeat CPU 0 instructions: 20000001 cycles: 7528446 heartbeat IPC: 2.64902 cumulative IPC: 2.65659 (Simulation time: 0 hr 3 min 40 sec) 
Heartbeat CPU 0 instructions: 30000000 cycles: 11254643 heartbeat IPC: 2.6837 cumulative IPC: 2.66557 (Simulation time: 0 hr 5 min 32 sec) 
Heartbeat CPU 0 instructions: 40000002 cycles: 15047591 heartbeat IPC: 2.63647 cumulative IPC: 2.65823 (Simulation time: 0 hr 7 min 21 sec) 
Heartbeat CPU 0 instructions: 50000003 cycles: 18837896 heartbeat IPC: 2.63831 cumulative IPC: 2.65422 (Simulation time: 0 hr 9 min 27 sec) 

Warmup complete CPU 0 instructions: 50000003 cycles: 18837896 (Simulation time: 0 hr 9 min 27 sec) 

Heartbeat CPU 0 instructions: 60000000 cycles: 27757822 heartbeat IPC: 1.12109 cumulative IPC: 1.12109 (Simulation time: 0 hr 11 min 16 sec) 
Heartbeat CPU 0 instructions: 70000000 cycles: 35978596 heartbeat IPC: 1.21643 cumulative IPC: 1.16681 (Simulation time: 0 hr 13 min 16 sec) 
Heartbeat CPU 0 instructions: 80000001 cycles: 45347042 heartbeat IPC: 1.06741 cumulative IPC: 1.13168 (Simulation time: 0 hr 14 min 50 sec) 
Heartbeat CPU 0 instructions: 90000000 cycles: 52871564 heartbeat IPC: 1.32899 cumulative IPC: 1.17531 (Simulation time: 0 hr 16 min 33 sec) 
Heartbeat CPU 0 instructions: 100000001 cycles: 60992677 heartbeat IPC: 1.23136 cumulative IPC: 1.18611 (Simulation time: 0 hr 18 min 21 sec) 
Finished CPU 0 instructions: 50000002 cycles: 42154782 cumulative IPC: 1.18611 (Simulation time: 0 hr 18 min 21 sec) 

ChampSim completed all CPUs

Region of Interest Statistics

CPU 0 cumulative IPC: 1.18611 instructions: 50000002 cycles: 42154782

SHEET
IPC : 1.18611

L1D TOTAL     ACCESS:   20742356  HIT:   19113300  MISS:    1629056
L1D LOAD      ACCESS:    8183154  HIT:    7386811  MISS:     796343
L1D RFO       ACCESS:    4830074  HIT:    4721335  MISS:     108739
L1D PREFETCH  ACCESS:    7729128  HIT:    7005154  MISS:     723974
L1D WRITEBACK ACCESS:          0  HIT:          0  MISS:          0
L1D PREFETCH  REQUESTED:    8252528  ISSUED:    8084352  USEFUL:     203579  USELESS:     520400
L1D AVERAGE MISS LATENCY: 32.5737 cycles
L1D

SHEET
L1D-total_access : 20742356
L1D-total_hit : 19113300
L1D-total_miss : 1629056
L1D-load_access : 8183154
L1D-load_hit : 7386811
L1D-load_miss : 796343
L1D-rfo_access : 4830074
L1D-rfo_hit : 4721335
L1D-rfo_miss : 108739
L1D-prefetch_access : 7729128
L1D-prefetch_hit : 7005154
L1D-prefetch_miss : 723974
L1D-writeback_access : 0
L1D-writeback_hit : 0
L1D-writeback_miss : 0
L1D-prefetch_requested : 8252528
L1D-prefetch_issued : 8084352
L1D-prefetch_useful : 203579
L1D-prefetch_useless : 520400
L1D-Avg_miss_latency : 32.5737

L1I TOTAL     ACCESS:   13080251  HIT:   11783337  MISS:    1296914
L1I LOAD      ACCESS:    9707369  HIT:    9076659  MISS:     630710
L1I RFO       ACCESS:          0  HIT:          0  MISS:          0
L1I PREFETCH  ACCESS:    3372882  HIT:    2706678  MISS:     666204
L1I WRITEBACK ACCESS:          0  HIT:          0  MISS:          0
L1I PREFETCH  REQUESTED:    3952992  ISSUED:    3952992  USEFUL:     536539  USELESS:     129648
L1I AVERAGE MISS LATENCY: 12.3006 cycles
L1I

SHEET
L1I-total_access : 13080251
L1I-total_hit : 11783337
L1I-total_miss : 1296914
L1I-load_access : 9707369
L1I-load_hit : 9076659
L1I-load_miss : 630710
L1I-rfo_access : 0
L1I-rfo_hit : 0
L1I-rfo_miss : 0
L1I-prefetch_access : 3372882
L1I-prefetch_hit : 2706678
L1I-prefetch_miss : 666204
L1I-writeback_access : 0
L1I-writeback_hit : 0
L1I-writeback_miss : 0
L1I-prefetch_requested : 3952992
L1I-prefetch_issued : 3952992
L1I-prefetch_useful : 536539
L1I-prefetch_useless : 129648
L1I-Avg_miss_latency : 12.3006

L2C TOTAL     ACCESS:    4311871  HIT:    3871268  MISS:     440603
L2C LOAD      ACCESS:    1044181  HIT:     859326  MISS:     184855
L2C RFO       ACCESS:     103555  HIT:      18303  MISS:      85252
L2C PREFETCH  ACCESS:    2982136  HIT:    2812041  MISS:     170095
L2C WRITEBACK ACCESS:     181999  HIT:     181598  MISS:        401
L2C PREFETCH  REQUESTED:    3165149  ISSUED:    3162382  USEFUL:      18152  USELESS:     151714
L2C AVERAGE MISS LATENCY: 75.7904 cycles
L2C

SHEET
L2C-total_access : 4311871
L2C-total_hit : 3871268
L2C-total_miss : 440603
L2C-load_access : 1044181
L2C-load_hit : 859326
L2C-load_miss : 184855
L2C-rfo_access : 103555
L2C-rfo_hit : 18303
L2C-rfo_miss : 85252
L2C-prefetch_access : 2982136
L2C-prefetch_hit : 2812041
L2C-prefetch_miss : 170095
L2C-writeback_access : 181999
L2C-writeback_hit : 181598
L2C-writeback_miss : 401
L2C-prefetch_requested : 3165149
L2C-prefetch_issued : 3162382
L2C-prefetch_useful : 18152
L2C-prefetch_useless : 151714
L2C-Avg_miss_latency : 75.7904

LLC TOTAL     ACCESS:    1475782  HIT:    1294036  MISS:     181746
LLC LOAD      ACCESS:     184640  HIT:     159393  MISS:      25247
LLC RFO       ACCESS:      85246  HIT:      16052  MISS:      69194
LLC PREFETCH  ACCESS:    1070027  HIT:     983090  MISS:      86937
LLC WRITEBACK ACCESS:     135869  HIT:     135501  MISS:        368
LLC PREFETCH  REQUESTED:          0  ISSUED:          0  USEFUL:      26483  USELESS:      66394
LLC AVERAGE MISS LATENCY: 163.862 cycles
LLC

SHEET
LLC-total_access : 1475782
LLC-total_hit : 1294036
LLC-total_miss : 181746
LLC-load_access : 184640
LLC-load_hit : 159393
LLC-load_miss : 25247
LLC-rfo_access : 85246
LLC-rfo_hit : 16052
LLC-rfo_miss : 69194
LLC-prefetch_access : 1070027
LLC-prefetch_hit : 983090
LLC-prefetch_miss : 86937
LLC-writeback_access : 135869
LLC-writeback_hit : 135501
LLC-writeback_miss : 368
LLC-prefetch_requested : 0
LLC-prefetch_issued : 0
LLC-prefetch_useful : 26483
LLC-prefetch_useless : 66394
LLC-Avg_miss_latency : 163.862

Major fault: 0 Minor fault: 5303
num_of_hits: 7311486
num_of_misses: 1739994
hit_rate: 0.807767
observed_signatures: 91490
RAS addresses: 8637
branch_addresses: 35612
RAS match: 2254443	 RAS_mismatches: 8350	 accuracy: 0.99631

 morteza stats start 

SHEET
RAS_access_cntr : 21487770
current_block_access_cntr : 41916192
table_access_cntr : 8181537
last_block_access_cntr : 41916192
last_signature_access_cntr : 9051174
miss_log_access_cntr : 3691120
prefetch_queue_access_cntr : 10737146
signature_access_cntr : 13576761
miss log count : 26


morteza stats endCPU 0 L1D next line prefetcher final stats

DRAM Statistics
 CHANNEL 0
 RQ ROW_BUFFER_HIT:      51317  ROW_BUFFER_MISS:     130047
 DBUS_CONGESTED:      94962
 WQ ROW_BUFFER_HIT:      24778  ROW_BUFFER_MISS:      65515  FULL:          0

 AVG_CONGESTED_CYCLE: 6

CPU 0 Branch Prediction Accuracy: 98.6482% MPKI: 3.1551 Average ROB Occupancy at Mispredict: 86.9488

Branch types
NOT_BRANCH: 38329598 76.6592%
BRANCH_DIRECT_JUMP: 510116 1.02023%
BRANCH_INDIRECT: 225730 0.45146%
BRANCH_CONDITIONAL: 8366762 16.7335%
BRANCH_DIRECT_CALL: 600748 1.2015%
BRANCH_INDIRECT_CALL: 682990 1.36598%
BRANCH_RETURN: 1283974 2.56795%
BRANCH_OTHER: 0 0%

