Initialize SIGNATURE TABLE
ST_SET: 1
ST_WAY: 256
ST_TAG_BIT: 16
ST_TAG_MASK: ffff

Initialize PATTERN TABLE
PT_SET: 512
PT_WAY: 4
SIG_DELTA_BIT: 7
C_SIG_BIT: 4
C_DELTA_BIT: 4

Initialize PREFETCH FILTER
FILTER_SET: 1024

*** ChampSim Multicore Out-of-Order Simulator ***

Warmup Instructions: 50000000
Simulation Instructions: 50000000
Number of CPUs: 1
LLC sets: 2048
LLC ways: 16
Off-chip DRAM Size: 4096 MB Channels: 1 Width: 64-bit Data Rate: 3200 MT/s

CPU 0 runs /home/mbaradaran/ChampSim/dpc3_traces/server_034.champsimtrace.xz
CPU 0 L1D next line prefetcher
Heartbeat CPU 0 instructions: 10000000 cycles: 3330582 heartbeat IPC: 3.00248 cumulative IPC: 3.00248 (Simulation time: 0 hr 1 min 46 sec) 
Heartbeat CPU 0 instructions: 20000002 cycles: 6653855 heartbeat IPC: 3.00908 cumulative IPC: 3.00578 (Simulation time: 0 hr 3 min 34 sec) 
Heartbeat CPU 0 instructions: 30000003 cycles: 9985161 heartbeat IPC: 3.00183 cumulative IPC: 3.00446 (Simulation time: 0 hr 5 min 20 sec) 
Heartbeat CPU 0 instructions: 40000001 cycles: 13314417 heartbeat IPC: 3.00367 cumulative IPC: 3.00426 (Simulation time: 0 hr 7 min 10 sec) 
Heartbeat CPU 0 instructions: 50000000 cycles: 16643672 heartbeat IPC: 3.00367 cumulative IPC: 3.00414 (Simulation time: 0 hr 8 min 41 sec) 

Warmup complete CPU 0 instructions: 50000002 cycles: 16643673 (Simulation time: 0 hr 8 min 41 sec) 

Heartbeat CPU 0 instructions: 60000002 cycles: 23518065 heartbeat IPC: 1.45467 cumulative IPC: 1.45467 (Simulation time: 0 hr 9 min 51 sec) 
Heartbeat CPU 0 instructions: 70000003 cycles: 30797268 heartbeat IPC: 1.37378 cumulative IPC: 1.41307 (Simulation time: 0 hr 10 min 56 sec) 
Heartbeat CPU 0 instructions: 80000002 cycles: 37732915 heartbeat IPC: 1.44183 cumulative IPC: 1.42253 (Simulation time: 0 hr 12 min 7 sec) 
Heartbeat CPU 0 instructions: 90000002 cycles: 44663123 heartbeat IPC: 1.44296 cumulative IPC: 1.42758 (Simulation time: 0 hr 13 min 15 sec) 
Heartbeat CPU 0 instructions: 100000002 cycles: 51678477 heartbeat IPC: 1.42544 cumulative IPC: 1.42715 (Simulation time: 0 hr 14 min 29 sec) 
Finished CPU 0 instructions: 50000000 cycles: 35034804 cumulative IPC: 1.42715 (Simulation time: 0 hr 14 min 29 sec) 

ChampSim completed all CPUs

Region of Interest Statistics

CPU 0 cumulative IPC: 1.42715 instructions: 50000000 cycles: 35034804

SHEET
IPC : 1.42715

L1D TOTAL     ACCESS:   19337971  HIT:   17913242  MISS:    1424729
L1D LOAD      ACCESS:    6658175  HIT:    6004139  MISS:     654036
L1D RFO       ACCESS:    6186053  HIT:    6042800  MISS:     143253
L1D PREFETCH  ACCESS:    6493743  HIT:    5866303  MISS:     627440
L1D WRITEBACK ACCESS:          0  HIT:          0  MISS:          0
L1D PREFETCH  REQUESTED:    6698750  ISSUED:    6626203  USEFUL:     142268  USELESS:     485140
L1D AVERAGE MISS LATENCY: 17.89 cycles
L1D

SHEET
L1D-total_access : 19337971
L1D-total_hit : 17913242
L1D-total_miss : 1424729
L1D-load_access : 6658175
L1D-load_hit : 6004139
L1D-load_miss : 654036
L1D-rfo_access : 6186053
L1D-rfo_hit : 6042800
L1D-rfo_miss : 143253
L1D-prefetch_access : 6493743
L1D-prefetch_hit : 5866303
L1D-prefetch_miss : 627440
L1D-writeback_access : 0
L1D-writeback_hit : 0
L1D-writeback_miss : 0
L1D-prefetch_requested : 6698750
L1D-prefetch_issued : 6626203
L1D-prefetch_useful : 142268
L1D-prefetch_useless : 485140
L1D-Avg_miss_latency : 17.89

L1I TOTAL     ACCESS:   12904346  HIT:    8986168  MISS:    3918178
L1I LOAD      ACCESS:    9422381  HIT:    7634287  MISS:    1788094
L1I RFO       ACCESS:          0  HIT:          0  MISS:          0
L1I PREFETCH  ACCESS:    3481965  HIT:    1351881  MISS:    2130084
L1I WRITEBACK ACCESS:          0  HIT:          0  MISS:          0
L1I PREFETCH  REQUESTED:    5286512  ISSUED:    5286512  USEFUL:    1920521  USELESS:     209558
L1I AVERAGE MISS LATENCY: 9.75723 cycles
L1I

SHEET
L1I-total_access : 12904346
L1I-total_hit : 8986168
L1I-total_miss : 3918178
L1I-load_access : 9422381
L1I-load_hit : 7634287
L1I-load_miss : 1788094
L1I-rfo_access : 0
L1I-rfo_hit : 0
L1I-rfo_miss : 0
L1I-prefetch_access : 3481965
L1I-prefetch_hit : 1351881
L1I-prefetch_miss : 2130084
L1I-writeback_access : 0
L1I-writeback_hit : 0
L1I-writeback_miss : 0
L1I-prefetch_requested : 5286512
L1I-prefetch_issued : 5286512
L1I-prefetch_useful : 1920521
L1I-prefetch_useless : 209558
L1I-Avg_miss_latency : 9.75723

L2C TOTAL     ACCESS:    7689694  HIT:    7526901  MISS:     162793
L2C LOAD      ACCESS:    1134927  HIT:    1074967  MISS:      59960
L2C RFO       ACCESS:     141457  HIT:     132928  MISS:       8529
L2C PREFETCH  ACCESS:    6062437  HIT:    5969013  MISS:      93424
L2C WRITEBACK ACCESS:     350873  HIT:     349993  MISS:        880
L2C PREFETCH  REQUESTED:    6451513  ISSUED:    6446139  USEFUL:       5261  USELESS:      87718
L2C AVERAGE MISS LATENCY: 38.5381 cycles
L2C

SHEET
L2C-total_access : 7689694
L2C-total_hit : 7526901
L2C-total_miss : 162793
L2C-load_access : 1134927
L2C-load_hit : 1074967
L2C-load_miss : 59960
L2C-rfo_access : 141457
L2C-rfo_hit : 132928
L2C-rfo_miss : 8529
L2C-prefetch_access : 6062437
L2C-prefetch_hit : 5969013
L2C-prefetch_miss : 93424
L2C-writeback_access : 350873
L2C-writeback_hit : 349993
L2C-writeback_miss : 880
L2C-prefetch_requested : 6451513
L2C-prefetch_issued : 6446139
L2C-prefetch_useful : 5261
L2C-prefetch_useless : 87718
L2C-Avg_miss_latency : 38.5381

LLC TOTAL     ACCESS:    2163975  HIT:    2148509  MISS:      15466
LLC LOAD      ACCESS:      59848  HIT:      56584  MISS:       3264
LLC RFO       ACCESS:       8529  HIT:       8198  MISS:        331
LLC PREFETCH  ACCESS:    2054268  HIT:    2042495  MISS:      11773
LLC WRITEBACK ACCESS:      41330  HIT:      41232  MISS:         98
LLC PREFETCH  REQUESTED:          0  ISSUED:          0  USEFUL:       3464  USELESS:       6127
LLC AVERAGE MISS LATENCY: 154.724 cycles
LLC

SHEET
LLC-total_access : 2163975
LLC-total_hit : 2148509
LLC-total_miss : 15466
LLC-load_access : 59848
LLC-load_hit : 56584
LLC-load_miss : 3264
LLC-rfo_access : 8529
LLC-rfo_hit : 8198
LLC-rfo_miss : 331
LLC-prefetch_access : 2054268
LLC-prefetch_hit : 2042495
LLC-prefetch_miss : 11773
LLC-writeback_access : 41330
LLC-writeback_hit : 41232
LLC-writeback_miss : 98
LLC-prefetch_requested : 0
LLC-prefetch_issued : 0
LLC-prefetch_useful : 3464
LLC-prefetch_useless : 6127
LLC-Avg_miss_latency : 154.724

Major fault: 0 Minor fault: 1170
num_of_hits: 10003572
num_of_misses: 467432
hit_rate: 0.955359
observed_signatures: 3858
RAS addresses: 1093
branch_addresses: 6261
RAS match: 2524060	 RAS_mismatches: 682	 accuracy: 0.99973

 morteza stats start 

SHEET
RAS_access_cntr : 25240237
current_block_access_cntr : 42282958
table_access_cntr : 10237288
last_block_access_cntr : 42282958
last_signature_access_cntr : 10098994
miss_log_access_cntr : 5006625
prefetch_queue_access_cntr : 15215769
signature_access_cntr : 15148491
miss log count : 28


morteza stats endCPU 0 L1D next line prefetcher final stats

DRAM Statistics
 CHANNEL 0
 RQ ROW_BUFFER_HIT:       3431  ROW_BUFFER_MISS:      11934
 DBUS_CONGESTED:       6964
 WQ ROW_BUFFER_HIT:       1384  ROW_BUFFER_MISS:       3432  FULL:          0

 AVG_CONGESTED_CYCLE: 5

CPU 0 Branch Prediction Accuracy: 99.926% MPKI: 0.14472 Average ROB Occupancy at Mispredict: 170.323

Branch types
NOT_BRANCH: 40220865 80.4417%
BRANCH_DIRECT_JUMP: 771318 1.54264%
BRANCH_INDIRECT: 108663 0.217326%
BRANCH_CONDITIONAL: 6375021 12.75%
BRANCH_DIRECT_CALL: 1049632 2.09926%
BRANCH_INDIRECT_CALL: 212280 0.42456%
BRANCH_RETURN: 1261922 2.52384%
BRANCH_OTHER: 0 0%

