Initialize SIGNATURE TABLE
ST_SET: 1
ST_WAY: 256
ST_TAG_BIT: 16
ST_TAG_MASK: ffff

Initialize PATTERN TABLE
PT_SET: 512
PT_WAY: 4
SIG_DELTA_BIT: 7
C_SIG_BIT: 4
C_DELTA_BIT: 4

Initialize PREFETCH FILTER
FILTER_SET: 1024

*** ChampSim Multicore Out-of-Order Simulator ***

Warmup Instructions: 50000000
Simulation Instructions: 50000000
Number of CPUs: 1
LLC sets: 2048
LLC ways: 16
Off-chip DRAM Size: 4096 MB Channels: 1 Width: 64-bit Data Rate: 3200 MT/s

CPU 0 runs /home/mbaradaran/ChampSim/dpc3_traces/server_009.champsimtrace.xz
CPU 0 L1D next line prefetcher
Heartbeat CPU 0 instructions: 10000003 cycles: 3199156 heartbeat IPC: 3.12583 cumulative IPC: 3.12583 (Simulation time: 0 hr 1 min 31 sec) 
Heartbeat CPU 0 instructions: 20000001 cycles: 6392732 heartbeat IPC: 3.13129 cumulative IPC: 3.12855 (Simulation time: 0 hr 3 min 7 sec) 
Heartbeat CPU 0 instructions: 30000002 cycles: 9599990 heartbeat IPC: 3.11793 cumulative IPC: 3.125 (Simulation time: 0 hr 4 min 41 sec) 
Heartbeat CPU 0 instructions: 40000003 cycles: 12803660 heartbeat IPC: 3.12142 cumulative IPC: 3.12411 (Simulation time: 0 hr 6 min 31 sec) 
Heartbeat CPU 0 instructions: 50000000 cycles: 16063523 heartbeat IPC: 3.06761 cumulative IPC: 3.11264 (Simulation time: 0 hr 8 min 17 sec) 

Warmup complete CPU 0 instructions: 50000004 cycles: 16063524 (Simulation time: 0 hr 8 min 17 sec) 

Heartbeat CPU 0 instructions: 60000002 cycles: 33746309 heartbeat IPC: 0.565522 cumulative IPC: 0.565522 (Simulation time: 0 hr 10 min 24 sec) 
Heartbeat CPU 0 instructions: 70000003 cycles: 55616759 heartbeat IPC: 0.457238 cumulative IPC: 0.505648 (Simulation time: 0 hr 13 min 8 sec) 
Heartbeat CPU 0 instructions: 80000000 cycles: 65804683 heartbeat IPC: 0.981554 cumulative IPC: 0.603122 (Simulation time: 0 hr 14 min 25 sec) 
Heartbeat CPU 0 instructions: 90000001 cycles: 76110239 heartbeat IPC: 0.97035 cumulative IPC: 0.666148 (Simulation time: 0 hr 15 min 46 sec) 
Heartbeat CPU 0 instructions: 100000001 cycles: 86392200 heartbeat IPC: 0.972577 cumulative IPC: 0.710948 (Simulation time: 0 hr 17 min 4 sec) 
Finished CPU 0 instructions: 50000000 cycles: 70328677 cumulative IPC: 0.710948 (Simulation time: 0 hr 17 min 4 sec) 

ChampSim completed all CPUs

Region of Interest Statistics

CPU 0 cumulative IPC: 0.710948 instructions: 50000000 cycles: 70328677

SHEET
IPC : 0.710948

L1D TOTAL     ACCESS:   22480329  HIT:   17899990  MISS:    4580339
L1D LOAD      ACCESS:    9028728  HIT:    6756786  MISS:    2271942
L1D RFO       ACCESS:    4625102  HIT:    4520242  MISS:     104860
L1D PREFETCH  ACCESS:    8826499  HIT:    6622962  MISS:    2203537
L1D WRITEBACK ACCESS:          0  HIT:          0  MISS:          0
L1D PREFETCH  REQUESTED:    9063092  ISSUED:    8962570  USEFUL:     114626  USELESS:    2088910
L1D AVERAGE MISS LATENCY: 20.0566 cycles
L1D

SHEET
L1D-total_access : 22480329
L1D-total_hit : 17899990
L1D-total_miss : 4580339
L1D-load_access : 9028728
L1D-load_hit : 6756786
L1D-load_miss : 2271942
L1D-rfo_access : 4625102
L1D-rfo_hit : 4520242
L1D-rfo_miss : 104860
L1D-prefetch_access : 8826499
L1D-prefetch_hit : 6622962
L1D-prefetch_miss : 2203537
L1D-writeback_access : 0
L1D-writeback_hit : 0
L1D-writeback_miss : 0
L1D-prefetch_requested : 9063092
L1D-prefetch_issued : 8962570
L1D-prefetch_useful : 114626
L1D-prefetch_useless : 2088910
L1D-Avg_miss_latency : 20.0566

L1I TOTAL     ACCESS:   13036454  HIT:   11309799  MISS:    1726655
L1I LOAD      ACCESS:   10671542  HIT:    9598366  MISS:    1073176
L1I RFO       ACCESS:          0  HIT:          0  MISS:          0
L1I PREFETCH  ACCESS:    2364912  HIT:    1711433  MISS:     653479
L1I WRITEBACK ACCESS:          0  HIT:          0  MISS:          0
L1I PREFETCH  REQUESTED:    2800716  ISSUED:    2800716  USEFUL:     520048  USELESS:     133442
L1I AVERAGE MISS LATENCY: 21.9485 cycles
L1I

SHEET
L1I-total_access : 13036454
L1I-total_hit : 11309799
L1I-total_miss : 1726655
L1I-load_access : 10671542
L1I-load_hit : 9598366
L1I-load_miss : 1073176
L1I-rfo_access : 0
L1I-rfo_hit : 0
L1I-rfo_miss : 0
L1I-prefetch_access : 2364912
L1I-prefetch_hit : 1711433
L1I-prefetch_miss : 653479
L1I-writeback_access : 0
L1I-writeback_hit : 0
L1I-writeback_miss : 0
L1I-prefetch_requested : 2800716
L1I-prefetch_issued : 2800716
L1I-prefetch_useful : 520048
L1I-prefetch_useless : 133442
L1I-Avg_miss_latency : 21.9485

L2C TOTAL     ACCESS:    8489835  HIT:    7522164  MISS:     967671
L2C LOAD      ACCESS:    3032680  HIT:    2469772  MISS:     562908
L2C RFO       ACCESS:     103871  HIT:      65535  MISS:      38336
L2C PREFETCH  ACCESS:    5096411  HIT:    4730466  MISS:     365945
L2C WRITEBACK ACCESS:     256873  HIT:     256391  MISS:        482
L2C PREFETCH  REQUESTED:    7572960  ISSUED:    7572048  USEFUL:      61389  USELESS:     304257
L2C AVERAGE MISS LATENCY: 42.6316 cycles
L2C

SHEET
L2C-total_access : 8489835
L2C-total_hit : 7522164
L2C-total_miss : 967671
L2C-load_access : 3032680
L2C-load_hit : 2469772
L2C-load_miss : 562908
L2C-rfo_access : 103871
L2C-rfo_hit : 65535
L2C-rfo_miss : 38336
L2C-prefetch_access : 5096411
L2C-prefetch_hit : 4730466
L2C-prefetch_miss : 365945
L2C-writeback_access : 256873
L2C-writeback_hit : 256391
L2C-writeback_miss : 482
L2C-prefetch_requested : 7572960
L2C-prefetch_issued : 7572048
L2C-prefetch_useful : 61389
L2C-prefetch_useless : 304257
L2C-Avg_miss_latency : 42.6316

LLC TOTAL     ACCESS:    2826558  HIT:    2664354  MISS:     162204
LLC LOAD      ACCESS:     546762  HIT:     512723  MISS:      34039
LLC RFO       ACCESS:      38334  HIT:      28955  MISS:       9379
LLC PREFETCH  ACCESS:    2110647  HIT:    1992452  MISS:     118195
LLC WRITEBACK ACCESS:     130815  HIT:     130224  MISS:        591
LLC PREFETCH  REQUESTED:          0  ISSUED:          0  USEFUL:      20844  USELESS:      95343
LLC AVERAGE MISS LATENCY: 164.078 cycles
LLC

SHEET
LLC-total_access : 2826558
LLC-total_hit : 2664354
LLC-total_miss : 162204
LLC-load_access : 546762
LLC-load_hit : 512723
LLC-load_miss : 34039
LLC-rfo_access : 38334
LLC-rfo_hit : 28955
LLC-rfo_miss : 9379
LLC-prefetch_access : 2110647
LLC-prefetch_hit : 1992452
LLC-prefetch_miss : 118195
LLC-writeback_access : 130815
LLC-writeback_hit : 130224
LLC-writeback_miss : 591
LLC-prefetch_requested : 0
LLC-prefetch_issued : 0
LLC-prefetch_useful : 20844
LLC-prefetch_useless : 95343
LLC-Avg_miss_latency : 164.078

Major fault: 0 Minor fault: 6351
num_of_hits: 5699820
num_of_misses: 1256950
hit_rate: 0.81932
observed_signatures: 21120
RAS addresses: 3093
branch_addresses: 25620
RAS match: 1664792	 RAS_mismatches: 74231	 accuracy: 0.957315

 morteza stats start 

SHEET
RAS_access_cntr : 15475274
current_block_access_cntr : 43022492
table_access_cntr : 6328078
last_block_access_cntr : 43022492
last_signature_access_cntr : 6956092
miss_log_access_cntr : 3834398
prefetch_queue_access_cntr : 8967713
signature_access_cntr : 10434138
miss log count : 450


morteza stats endCPU 0 L1D next line prefetcher final stats

DRAM Statistics
 CHANNEL 0
 RQ ROW_BUFFER_HIT:      32329  ROW_BUFFER_MISS:     129278
 DBUS_CONGESTED:      63974
 WQ ROW_BUFFER_HIT:       9134  ROW_BUFFER_MISS:      41576  FULL:          0

 AVG_CONGESTED_CYCLE: 5

CPU 0 Branch Prediction Accuracy: 99.4713% MPKI: 1.11484 Average ROB Occupancy at Mispredict: 72.0402

Branch types
NOT_BRANCH: 39456585 78.9132%
BRANCH_DIRECT_JUMP: 445350 0.8907%
BRANCH_INDIRECT: 131149 0.262298%
BRANCH_CONDITIONAL: 8130187 16.2604%
BRANCH_DIRECT_CALL: 732485 1.46497%
BRANCH_INDIRECT_CALL: 172369 0.344738%
BRANCH_RETURN: 931558 1.86312%
BRANCH_OTHER: 0 0%

