Initialize SIGNATURE TABLE
ST_SET: 1
ST_WAY: 256
ST_TAG_BIT: 16
ST_TAG_MASK: ffff

Initialize PATTERN TABLE
PT_SET: 512
PT_WAY: 4
SIG_DELTA_BIT: 7
C_SIG_BIT: 4
C_DELTA_BIT: 4

Initialize PREFETCH FILTER
FILTER_SET: 1024

*** ChampSim Multicore Out-of-Order Simulator ***

Warmup Instructions: 50000000
Simulation Instructions: 50000000
Number of CPUs: 1
LLC sets: 2048
LLC ways: 16
Off-chip DRAM Size: 4096 MB Channels: 1 Width: 64-bit Data Rate: 3200 MT/s

CPU 0 runs /home/mbaradaran/ChampSim/dpc3_traces/server_010.champsimtrace.xz
CPU 0 L1D next line prefetcher
Heartbeat CPU 0 instructions: 10000000 cycles: 3198042 heartbeat IPC: 3.12691 cumulative IPC: 3.12691 (Simulation time: 0 hr 1 min 37 sec) 
Heartbeat CPU 0 instructions: 20000002 cycles: 6392298 heartbeat IPC: 3.13062 cumulative IPC: 3.12877 (Simulation time: 0 hr 3 min 14 sec) 
Heartbeat CPU 0 instructions: 30000001 cycles: 9590275 heartbeat IPC: 3.12698 cumulative IPC: 3.12817 (Simulation time: 0 hr 5 min 1 sec) 
Heartbeat CPU 0 instructions: 40000000 cycles: 12784258 heartbeat IPC: 3.13089 cumulative IPC: 3.12885 (Simulation time: 0 hr 6 min 36 sec) 
Heartbeat CPU 0 instructions: 50000003 cycles: 15983414 heartbeat IPC: 3.12583 cumulative IPC: 3.12824 (Simulation time: 0 hr 8 min 12 sec) 

Warmup complete CPU 0 instructions: 50000003 cycles: 15983414 (Simulation time: 0 hr 8 min 12 sec) 

Heartbeat CPU 0 instructions: 60000000 cycles: 26341340 heartbeat IPC: 0.965444 cumulative IPC: 0.965444 (Simulation time: 0 hr 9 min 34 sec) 
Heartbeat CPU 0 instructions: 70000000 cycles: 37179850 heartbeat IPC: 0.922636 cumulative IPC: 0.943555 (Simulation time: 0 hr 10 min 52 sec) 
Heartbeat CPU 0 instructions: 80000001 cycles: 48174884 heartbeat IPC: 0.909502 cumulative IPC: 0.931924 (Simulation time: 0 hr 12 min 13 sec) 
Heartbeat CPU 0 instructions: 90000002 cycles: 58694332 heartbeat IPC: 0.95062 cumulative IPC: 0.936529 (Simulation time: 0 hr 13 min 28 sec) 
Heartbeat CPU 0 instructions: 100000000 cycles: 80785228 heartbeat IPC: 0.452675 cumulative IPC: 0.771583 (Simulation time: 0 hr 15 min 48 sec) 
Finished CPU 0 instructions: 50000001 cycles: 64801815 cumulative IPC: 0.771583 (Simulation time: 0 hr 15 min 48 sec) 

ChampSim completed all CPUs

Region of Interest Statistics

CPU 0 cumulative IPC: 0.771583 instructions: 50000001 cycles: 64801815

SHEET
IPC : 0.771583

L1D TOTAL     ACCESS:   21091904  HIT:   17865643  MISS:    3226261
L1D LOAD      ACCESS:    8267854  HIT:    6684570  MISS:    1583284
L1D RFO       ACCESS:    4765045  HIT:    4670249  MISS:      94796
L1D PREFETCH  ACCESS:    8059005  HIT:    6510824  MISS:    1548181
L1D WRITEBACK ACCESS:          0  HIT:          0  MISS:          0
L1D PREFETCH  REQUESTED:    8302986  ISSUED:    8203574  USEFUL:     127087  USELESS:    1421065
L1D AVERAGE MISS LATENCY: 22.2679 cycles
L1D

SHEET
L1D-total_access : 21091904
L1D-total_hit : 17865643
L1D-total_miss : 3226261
L1D-load_access : 8267854
L1D-load_hit : 6684570
L1D-load_miss : 1583284
L1D-rfo_access : 4765045
L1D-rfo_hit : 4670249
L1D-rfo_miss : 94796
L1D-prefetch_access : 8059005
L1D-prefetch_hit : 6510824
L1D-prefetch_miss : 1548181
L1D-writeback_access : 0
L1D-writeback_hit : 0
L1D-writeback_miss : 0
L1D-prefetch_requested : 8302986
L1D-prefetch_issued : 8203574
L1D-prefetch_useful : 127087
L1D-prefetch_useless : 1421065
L1D-Avg_miss_latency : 22.2679

L1I TOTAL     ACCESS:   11999761  HIT:    9836129  MISS:    2163632
L1I LOAD      ACCESS:    9881000  HIT:    8517137  MISS:    1363863
L1I RFO       ACCESS:          0  HIT:          0  MISS:          0
L1I PREFETCH  ACCESS:    2118761  HIT:    1318992  MISS:     799769
L1I WRITEBACK ACCESS:          0  HIT:          0  MISS:          0
L1I PREFETCH  REQUESTED:    2641950  ISSUED:    2641950  USEFUL:     654810  USELESS:     144959
L1I AVERAGE MISS LATENCY: 20.7785 cycles
L1I

SHEET
L1I-total_access : 11999761
L1I-total_hit : 9836129
L1I-total_miss : 2163632
L1I-load_access : 9881000
L1I-load_hit : 8517137
L1I-load_miss : 1363863
L1I-rfo_access : 0
L1I-rfo_hit : 0
L1I-rfo_miss : 0
L1I-prefetch_access : 2118761
L1I-prefetch_hit : 1318992
L1I-prefetch_miss : 799769
L1I-writeback_access : 0
L1I-writeback_hit : 0
L1I-writeback_miss : 0
L1I-prefetch_requested : 2641950
L1I-prefetch_issued : 2641950
L1I-prefetch_useful : 654810
L1I-prefetch_useless : 144959
L1I-Avg_miss_latency : 20.7785

L2C TOTAL     ACCESS:    7518420  HIT:    6450874  MISS:    1067546
L2C LOAD      ACCESS:    2578289  HIT:    1954562  MISS:     623727
L2C RFO       ACCESS:      93802  HIT:      50824  MISS:      42978
L2C PREFETCH  ACCESS:    4580932  HIT:    4180766  MISS:     400166
L2C WRITEBACK ACCESS:     265397  HIT:     264722  MISS:        675
L2C PREFETCH  REQUESTED:    6973691  ISSUED:    6972876  USEFUL:      69157  USELESS:     330918
L2C AVERAGE MISS LATENCY: 41.3559 cycles
L2C

SHEET
L2C-total_access : 7518420
L2C-total_hit : 6450874
L2C-total_miss : 1067546
L2C-load_access : 2578289
L2C-load_hit : 1954562
L2C-load_miss : 623727
L2C-rfo_access : 93802
L2C-rfo_hit : 50824
L2C-rfo_miss : 42978
L2C-prefetch_access : 4580932
L2C-prefetch_hit : 4180766
L2C-prefetch_miss : 400166
L2C-writeback_access : 265397
L2C-writeback_hit : 264722
L2C-writeback_miss : 675
L2C-prefetch_requested : 6973691
L2C-prefetch_issued : 6972876
L2C-prefetch_useful : 69157
L2C-prefetch_useless : 330918
L2C-Avg_miss_latency : 41.3559

LLC TOTAL     ACCESS:    2936472  HIT:    2774444  MISS:     162028
LLC LOAD      ACCESS:     605735  HIT:     572606  MISS:      33129
LLC RFO       ACCESS:      42973  HIT:      34021  MISS:       8952
LLC PREFETCH  ACCESS:    2143229  HIT:    2023754  MISS:     119475
LLC WRITEBACK ACCESS:     144535  HIT:     144063  MISS:        472
LLC PREFETCH  REQUESTED:          0  ISSUED:          0  USEFUL:      20529  USELESS:      99341
LLC AVERAGE MISS LATENCY: 163.241 cycles
LLC

SHEET
LLC-total_access : 2936472
LLC-total_hit : 2774444
LLC-total_miss : 162028
LLC-load_access : 605735
LLC-load_hit : 572606
LLC-load_miss : 33129
LLC-rfo_access : 42973
LLC-rfo_hit : 34021
LLC-rfo_miss : 8952
LLC-prefetch_access : 2143229
LLC-prefetch_hit : 2023754
LLC-prefetch_miss : 119475
LLC-writeback_access : 144535
LLC-writeback_hit : 144063
LLC-writeback_miss : 472
LLC-prefetch_requested : 0
LLC-prefetch_issued : 0
LLC-prefetch_useful : 20529
LLC-prefetch_useless : 99341
LLC-Avg_miss_latency : 163.241

Major fault: 0 Minor fault: 5593
num_of_hits: 5454341
num_of_misses: 1361525
hit_rate: 0.800242
observed_signatures: 17376
RAS addresses: 2638
branch_addresses: 23120
RAS match: 1626066	 RAS_mismatches: 77763	 accuracy: 0.95436

 morteza stats start 

SHEET
RAS_access_cntr : 15004946
current_block_access_cntr : 41708926
table_access_cntr : 6134861
last_block_access_cntr : 41708926
last_signature_access_cntr : 6815352
miss_log_access_cntr : 4389667
prefetch_queue_access_cntr : 8869435
signature_access_cntr : 10223028
miss log count : 132


morteza stats endCPU 0 L1D next line prefetcher final stats

DRAM Statistics
 CHANNEL 0
 RQ ROW_BUFFER_HIT:      26683  ROW_BUFFER_MISS:     134870
 DBUS_CONGESTED:      61202
 WQ ROW_BUFFER_HIT:       9634  ROW_BUFFER_MISS:      45368  FULL:          0

 AVG_CONGESTED_CYCLE: 5

CPU 0 Branch Prediction Accuracy: 99.5528% MPKI: 0.89798 Average ROB Occupancy at Mispredict: 68.5879

Branch types
NOT_BRANCH: 39958753 79.9175%
BRANCH_DIRECT_JUMP: 449946 0.899892%
BRANCH_INDIRECT: 140210 0.28042%
BRANCH_CONDITIONAL: 7679658 15.3593%
BRANCH_DIRECT_CALL: 701578 1.40316%
BRANCH_INDIRECT_CALL: 168971 0.337942%
BRANCH_RETURN: 900560 1.80112%
BRANCH_OTHER: 0 0%

