Initialize SIGNATURE TABLE
ST_SET: 1
ST_WAY: 256
ST_TAG_BIT: 16
ST_TAG_MASK: ffff

Initialize PATTERN TABLE
PT_SET: 512
PT_WAY: 4
SIG_DELTA_BIT: 7
C_SIG_BIT: 4
C_DELTA_BIT: 4

Initialize PREFETCH FILTER
FILTER_SET: 1024

*** ChampSim Multicore Out-of-Order Simulator ***

Warmup Instructions: 50000000
Simulation Instructions: 50000000
Number of CPUs: 1
LLC sets: 2048
LLC ways: 16
Off-chip DRAM Size: 4096 MB Channels: 1 Width: 64-bit Data Rate: 3200 MT/s

CPU 0 runs /home/mbaradaran/ChampSim/dpc3_traces/server_022.champsimtrace.xz
CPU 0 L1D next line prefetcher
Heartbeat CPU 0 instructions: 10000002 cycles: 3624979 heartbeat IPC: 2.75864 cumulative IPC: 2.75864 (Simulation time: 0 hr 1 min 52 sec) 
Heartbeat CPU 0 instructions: 20000001 cycles: 7256410 heartbeat IPC: 2.75374 cumulative IPC: 2.75618 (Simulation time: 0 hr 3 min 46 sec) 
Heartbeat CPU 0 instructions: 30000003 cycles: 10881499 heartbeat IPC: 2.75855 cumulative IPC: 2.75697 (Simulation time: 0 hr 5 min 46 sec) 
Heartbeat CPU 0 instructions: 40000003 cycles: 14513885 heartbeat IPC: 2.75301 cumulative IPC: 2.75598 (Simulation time: 0 hr 7 min 37 sec) 
Heartbeat CPU 0 instructions: 50000002 cycles: 18136272 heartbeat IPC: 2.76061 cumulative IPC: 2.75691 (Simulation time: 0 hr 9 min 31 sec) 

Warmup complete CPU 0 instructions: 50000002 cycles: 18136272 (Simulation time: 0 hr 9 min 31 sec) 

Heartbeat CPU 0 instructions: 60000000 cycles: 35060679 heartbeat IPC: 0.590863 cumulative IPC: 0.590863 (Simulation time: 0 hr 11 min 47 sec) 
Heartbeat CPU 0 instructions: 70000001 cycles: 52056367 heartbeat IPC: 0.588385 cumulative IPC: 0.589621 (Simulation time: 0 hr 13 min 56 sec) 
Heartbeat CPU 0 instructions: 80000001 cycles: 68855994 heartbeat IPC: 0.595251 cumulative IPC: 0.591486 (Simulation time: 0 hr 16 min 3 sec) 
Heartbeat CPU 0 instructions: 90000003 cycles: 85896409 heartbeat IPC: 0.58684 cumulative IPC: 0.590318 (Simulation time: 0 hr 18 min 33 sec) 
Heartbeat CPU 0 instructions: 100000003 cycles: 102711316 heartbeat IPC: 0.59471 cumulative IPC: 0.591191 (Simulation time: 0 hr 20 min 56 sec) 
Finished CPU 0 instructions: 50000001 cycles: 84575044 cumulative IPC: 0.591191 (Simulation time: 0 hr 20 min 56 sec) 

ChampSim completed all CPUs

Region of Interest Statistics

CPU 0 cumulative IPC: 0.591191 instructions: 50000001 cycles: 84575044

SHEET
IPC : 0.591191

L1D TOTAL     ACCESS:   18928267  HIT:   16717414  MISS:    2210853
L1D LOAD      ACCESS:    7165696  HIT:    6463586  MISS:     702110
L1D RFO       ACCESS:    5885553  HIT:    4906012  MISS:     979541
L1D PREFETCH  ACCESS:    5877018  HIT:    5347816  MISS:     529202
L1D WRITEBACK ACCESS:          0  HIT:          0  MISS:          0
L1D PREFETCH  REQUESTED:    7210203  ISSUED:    7005778  USEFUL:     207907  USELESS:     321300
L1D AVERAGE MISS LATENCY: 179.779 cycles
L1D

SHEET
L1D-total_access : 18928267
L1D-total_hit : 16717414
L1D-total_miss : 2210853
L1D-load_access : 7165696
L1D-load_hit : 6463586
L1D-load_miss : 702110
L1D-rfo_access : 5885553
L1D-rfo_hit : 4906012
L1D-rfo_miss : 979541
L1D-prefetch_access : 5877018
L1D-prefetch_hit : 5347816
L1D-prefetch_miss : 529202
L1D-writeback_access : 0
L1D-writeback_hit : 0
L1D-writeback_miss : 0
L1D-prefetch_requested : 7210203
L1D-prefetch_issued : 7005778
L1D-prefetch_useful : 207907
L1D-prefetch_useless : 321300
L1D-Avg_miss_latency : 179.779

L1I TOTAL     ACCESS:   13544361  HIT:   10049695  MISS:    3494666
L1I LOAD      ACCESS:    9927647  HIT:    8762043  MISS:    1165604
L1I RFO       ACCESS:          0  HIT:          0  MISS:          0
L1I PREFETCH  ACCESS:    3616714  HIT:    1287652  MISS:    2329062
L1I WRITEBACK ACCESS:          0  HIT:          0  MISS:          0
L1I PREFETCH  REQUESTED:    5205804  ISSUED:    5205804  USEFUL:    2024463  USELESS:     304619
L1I AVERAGE MISS LATENCY: 11.2527 cycles
L1I

SHEET
L1I-total_access : 13544361
L1I-total_hit : 10049695
L1I-total_miss : 3494666
L1I-load_access : 9927647
L1I-load_hit : 8762043
L1I-load_miss : 1165604
L1I-rfo_access : 0
L1I-rfo_hit : 0
L1I-rfo_miss : 0
L1I-prefetch_access : 3616714
L1I-prefetch_hit : 1287652
L1I-prefetch_miss : 2329062
L1I-writeback_access : 0
L1I-writeback_hit : 0
L1I-writeback_miss : 0
L1I-prefetch_requested : 5205804
L1I-prefetch_issued : 5205804
L1I-prefetch_useful : 2024463
L1I-prefetch_useless : 304619
L1I-Avg_miss_latency : 11.2527

L2C TOTAL     ACCESS:    8506875  HIT:    6655053  MISS:    1851822
L2C LOAD      ACCESS:     636837  HIT:     388613  MISS:     248224
L2C RFO       ACCESS:     979027  HIT:      20348  MISS:     958679
L2C PREFETCH  ACCESS:    5705874  HIT:    5063160  MISS:     642714
L2C WRITEBACK ACCESS:    1185137  HIT:    1182932  MISS:       2205
L2C PREFETCH  REQUESTED:    5396504  ISSUED:    5391541  USEFUL:      22509  USELESS:     620143
L2C AVERAGE MISS LATENCY: 218.171 cycles
L2C

SHEET
L2C-total_access : 8506875
L2C-total_hit : 6655053
L2C-total_miss : 1851822
L2C-load_access : 636837
L2C-load_hit : 388613
L2C-load_miss : 248224
L2C-rfo_access : 979027
L2C-rfo_hit : 20348
L2C-rfo_miss : 958679
L2C-prefetch_access : 5705874
L2C-prefetch_hit : 5063160
L2C-prefetch_miss : 642714
L2C-writeback_access : 1185137
L2C-writeback_hit : 1182932
L2C-writeback_miss : 2205
L2C-prefetch_requested : 5396504
L2C-prefetch_issued : 5391541
L2C-prefetch_useful : 22509
L2C-prefetch_useless : 620143
L2C-Avg_miss_latency : 218.171

LLC TOTAL     ACCESS:    4349614  HIT:    2934381  MISS:    1415233
LLC LOAD      ACCESS:     248086  HIT:     172220  MISS:      75866
LLC RFO       ACCESS:     958675  HIT:     142605  MISS:     816070
LLC PREFETCH  ACCESS:    2025282  HIT:    1504120  MISS:     521162
LLC WRITEBACK ACCESS:    1117571  HIT:    1115436  MISS:       2135
LLC PREFETCH  REQUESTED:          0  ISSUED:          0  USEFUL:      32494  USELESS:     488965
LLC AVERAGE MISS LATENCY: 292.38 cycles
LLC

SHEET
LLC-total_access : 4349614
LLC-total_hit : 2934381
LLC-total_miss : 1415233
LLC-load_access : 248086
LLC-load_hit : 172220
LLC-load_miss : 75866
LLC-rfo_access : 958675
LLC-rfo_hit : 142605
LLC-rfo_miss : 816070
LLC-prefetch_access : 2025282
LLC-prefetch_hit : 1504120
LLC-prefetch_miss : 521162
LLC-writeback_access : 1117571
LLC-writeback_hit : 1115436
LLC-writeback_miss : 2135
LLC-prefetch_requested : 0
LLC-prefetch_issued : 0
LLC-prefetch_useful : 32494
LLC-prefetch_useless : 488965
LLC-Avg_miss_latency : 292.38

Major fault: 0 Minor fault: 23505
num_of_hits: 7546600
num_of_misses: 11208
hit_rate: 0.998517
observed_signatures: 3321
RAS addresses: 1108
branch_addresses: 6075
RAS match: 1833913	 RAS_mismatches: 612	 accuracy: 0.999666

 morteza stats start 

SHEET
RAS_access_cntr : 18217857
current_block_access_cntr : 43016062
table_access_cntr : 7552204
last_block_access_cntr : 43016062
last_signature_access_cntr : 7338106
miss_log_access_cntr : 3158135
prefetch_queue_access_cntr : 13575233
signature_access_cntr : 11007159
miss log count : 27


morteza stats endCPU 0 L1D next line prefetcher final stats

DRAM Statistics
 CHANNEL 0
 RQ ROW_BUFFER_HIT:     414620  ROW_BUFFER_MISS:     998173
 DBUS_CONGESTED:    1462715
 WQ ROW_BUFFER_HIT:     253864  ROW_BUFFER_MISS:     652054  FULL:          0

 AVG_CONGESTED_CYCLE: 6

CPU 0 Branch Prediction Accuracy: 99.8317% MPKI: 0.27564 Average ROB Occupancy at Mispredict: 209.588

Branch types
NOT_BRANCH: 41811131 83.6223%
BRANCH_DIRECT_JUMP: 445742 0.891484%
BRANCH_INDIRECT: 48876 0.097752%
BRANCH_CONDITIONAL: 5859401 11.7188%
BRANCH_DIRECT_CALL: 758266 1.51653%
BRANCH_INDIRECT_CALL: 159103 0.318206%
BRANCH_RETURN: 917372 1.83474%
BRANCH_OTHER: 0 0%

