Initialize SIGNATURE TABLE
ST_SET: 1
ST_WAY: 256
ST_TAG_BIT: 16
ST_TAG_MASK: ffff

Initialize PATTERN TABLE
PT_SET: 512
PT_WAY: 4
SIG_DELTA_BIT: 7
C_SIG_BIT: 4
C_DELTA_BIT: 4

Initialize PREFETCH FILTER
FILTER_SET: 1024

*** ChampSim Multicore Out-of-Order Simulator ***

Warmup Instructions: 50000000
Simulation Instructions: 50000000
Number of CPUs: 1
LLC sets: 2048
LLC ways: 16
Off-chip DRAM Size: 4096 MB Channels: 1 Width: 64-bit Data Rate: 3200 MT/s

CPU 0 runs /home/mbaradaran/ChampSim/dpc3_traces/spec_perlbench_001.champsimtrace.xz
CPU 0 L1D next line prefetcher
Heartbeat CPU 0 instructions: 10000000 cycles: 3276630 heartbeat IPC: 3.05192 cumulative IPC: 3.05192 (Simulation time: 0 hr 1 min 21 sec) 
Heartbeat CPU 0 instructions: 20000000 cycles: 6541928 heartbeat IPC: 3.06251 cumulative IPC: 3.0572 (Simulation time: 0 hr 2 min 47 sec) 
Heartbeat CPU 0 instructions: 30000002 cycles: 9859919 heartbeat IPC: 3.01387 cumulative IPC: 3.04262 (Simulation time: 0 hr 4 min 5 sec) 
Heartbeat CPU 0 instructions: 40000002 cycles: 13116079 heartbeat IPC: 3.0711 cumulative IPC: 3.04969 (Simulation time: 0 hr 5 min 23 sec) 
Heartbeat CPU 0 instructions: 50000001 cycles: 16390489 heartbeat IPC: 3.05398 cumulative IPC: 3.05055 (Simulation time: 0 hr 6 min 34 sec) 

Warmup complete CPU 0 instructions: 50000001 cycles: 16390489 (Simulation time: 0 hr 6 min 34 sec) 

Heartbeat CPU 0 instructions: 60000001 cycles: 25255079 heartbeat IPC: 1.12808 cumulative IPC: 1.12808 (Simulation time: 0 hr 7 min 45 sec) 
Heartbeat CPU 0 instructions: 70000003 cycles: 34063527 heartbeat IPC: 1.13527 cumulative IPC: 1.13167 (Simulation time: 0 hr 8 min 48 sec) 
Heartbeat CPU 0 instructions: 80000000 cycles: 42868527 heartbeat IPC: 1.13572 cumulative IPC: 1.13301 (Simulation time: 0 hr 9 min 48 sec) 
Heartbeat CPU 0 instructions: 90000000 cycles: 48690328 heartbeat IPC: 1.71768 cumulative IPC: 1.2384 (Simulation time: 0 hr 10 min 34 sec) 
Heartbeat CPU 0 instructions: 100000002 cycles: 54729340 heartbeat IPC: 1.6559 cumulative IPC: 1.30416 (Simulation time: 0 hr 11 min 20 sec) 
Finished CPU 0 instructions: 50000001 cycles: 38338851 cumulative IPC: 1.30416 (Simulation time: 0 hr 11 min 20 sec) 

ChampSim completed all CPUs

Region of Interest Statistics

CPU 0 cumulative IPC: 1.30416 instructions: 50000001 cycles: 38338851

SHEET
IPC : 1.30416

L1D TOTAL     ACCESS:   21098447  HIT:   20683319  MISS:     415128
L1D LOAD      ACCESS:    7372584  HIT:    7159371  MISS:     213213
L1D RFO       ACCESS:    6548753  HIT:    6530231  MISS:      18522
L1D PREFETCH  ACCESS:    7177110  HIT:    6993717  MISS:     183393
L1D WRITEBACK ACCESS:          0  HIT:          0  MISS:          0
L1D PREFETCH  REQUESTED:    7389937  ISSUED:    7277584  USEFUL:      55718  USELESS:     127670
L1D AVERAGE MISS LATENCY: 58.4073 cycles
L1D

SHEET
L1D-total_access : 21098447
L1D-total_hit : 20683319
L1D-total_miss : 415128
L1D-load_access : 7372584
L1D-load_hit : 7159371
L1D-load_miss : 213213
L1D-rfo_access : 6548753
L1D-rfo_hit : 6530231
L1D-rfo_miss : 18522
L1D-prefetch_access : 7177110
L1D-prefetch_hit : 6993717
L1D-prefetch_miss : 183393
L1D-writeback_access : 0
L1D-writeback_hit : 0
L1D-writeback_miss : 0
L1D-prefetch_requested : 7389937
L1D-prefetch_issued : 7277584
L1D-prefetch_useful : 55718
L1D-prefetch_useless : 127670
L1D-Avg_miss_latency : 58.4073

L1I TOTAL     ACCESS:   13976858  HIT:   12864017  MISS:    1112841
L1I LOAD      ACCESS:    9182647  HIT:    8666230  MISS:     516417
L1I RFO       ACCESS:          0  HIT:          0  MISS:          0
L1I PREFETCH  ACCESS:    4794211  HIT:    4197787  MISS:     596424
L1I WRITEBACK ACCESS:          0  HIT:          0  MISS:          0
L1I PREFETCH  REQUESTED:    4958962  ISSUED:    4958962  USEFUL:     434569  USELESS:     161850
L1I AVERAGE MISS LATENCY: 14.0555 cycles
L1I

SHEET
L1I-total_access : 13976858
L1I-total_hit : 12864017
L1I-total_miss : 1112841
L1I-load_access : 9182647
L1I-load_hit : 8666230
L1I-load_miss : 516417
L1I-rfo_access : 0
L1I-rfo_hit : 0
L1I-rfo_miss : 0
L1I-prefetch_access : 4794211
L1I-prefetch_hit : 4197787
L1I-prefetch_miss : 596424
L1I-writeback_access : 0
L1I-writeback_hit : 0
L1I-writeback_miss : 0
L1I-prefetch_requested : 4958962
L1I-prefetch_issued : 4958962
L1I-prefetch_useful : 434569
L1I-prefetch_useless : 161850
L1I-Avg_miss_latency : 14.0555

L2C TOTAL     ACCESS:    2302690  HIT:    2139228  MISS:     163462
L2C LOAD      ACCESS:     596978  HIT:     510977  MISS:      86001
L2C RFO       ACCESS:      18292  HIT:      12963  MISS:       5329
L2C PREFETCH  ACCESS:    1608440  HIT:    1536638  MISS:      71802
L2C WRITEBACK ACCESS:      78980  HIT:      78650  MISS:        330
L2C PREFETCH  REQUESTED:    1344121  ISSUED:    1344119  USEFUL:       6044  USELESS:      65825
L2C AVERAGE MISS LATENCY: 120.651 cycles
L2C

SHEET
L2C-total_access : 2302690
L2C-total_hit : 2139228
L2C-total_miss : 163462
L2C-load_access : 596978
L2C-load_hit : 510977
L2C-load_miss : 86001
L2C-rfo_access : 18292
L2C-rfo_hit : 12963
L2C-rfo_miss : 5329
L2C-prefetch_access : 1608440
L2C-prefetch_hit : 1536638
L2C-prefetch_miss : 71802
L2C-writeback_access : 78980
L2C-writeback_hit : 78650
L2C-writeback_miss : 330
L2C-prefetch_requested : 1344121
L2C-prefetch_issued : 1344119
L2C-prefetch_useful : 6044
L2C-prefetch_useless : 65825
L2C-Avg_miss_latency : 120.651

LLC TOTAL     ACCESS:     451890  HIT:     305303  MISS:     146587
LLC LOAD      ACCESS:      85993  HIT:      34865  MISS:      51128
LLC RFO       ACCESS:       5329  HIT:       2246  MISS:       3083
LLC PREFETCH  ACCESS:     335575  HIT:     243739  MISS:      91836
LLC WRITEBACK ACCESS:      24993  HIT:      24453  MISS:        540
LLC PREFETCH  REQUESTED:          0  ISSUED:          0  USEFUL:      14974  USELESS:      76898
LLC AVERAGE MISS LATENCY: 158.754 cycles
LLC

SHEET
LLC-total_access : 451890
LLC-total_hit : 305303
LLC-total_miss : 146587
LLC-load_access : 85993
LLC-load_hit : 34865
LLC-load_miss : 51128
LLC-rfo_access : 5329
LLC-rfo_hit : 2246
LLC-rfo_miss : 3083
LLC-prefetch_access : 335575
LLC-prefetch_hit : 243739
LLC-prefetch_miss : 91836
LLC-writeback_access : 24993
LLC-writeback_hit : 24453
LLC-writeback_miss : 540
LLC-prefetch_requested : 0
LLC-prefetch_issued : 0
LLC-prefetch_useful : 14974
LLC-prefetch_useless : 76898
LLC-Avg_miss_latency : 158.754

Major fault: 0 Minor fault: 6364
num_of_hits: 4991596
num_of_misses: 43664
hit_rate: 0.991328
observed_signatures: 8210
RAS addresses: 1541
branch_addresses: 11321
RAS match: 1254825	 RAS_mismatches: 3917	 accuracy: 0.996888

 morteza stats start 

SHEET
RAS_access_cntr : 10175599
current_block_access_cntr : 40608360
table_access_cntr : 5013422
last_block_access_cntr : 40608360
last_signature_access_cntr : 5034974
miss_log_access_cntr : 1831786
prefetch_queue_access_cntr : 12446071
signature_access_cntr : 7552461
miss log count : 45


morteza stats endCPU 0 L1D next line prefetcher final stats

DRAM Statistics
 CHANNEL 0
 RQ ROW_BUFFER_HIT:      33227  ROW_BUFFER_MISS:     112819
 DBUS_CONGESTED:      57672
 WQ ROW_BUFFER_HIT:       4333  ROW_BUFFER_MISS:      13142  FULL:          0

 AVG_CONGESTED_CYCLE: 4

CPU 0 Branch Prediction Accuracy: 98.7418% MPKI: 2.47758 Average ROB Occupancy at Mispredict: 64.8513

Branch types
NOT_BRANCH: 40154100 80.3082%
BRANCH_DIRECT_JUMP: 817094 1.63419%
BRANCH_INDIRECT: 303787 0.607574%
BRANCH_CONDITIONAL: 7492103 14.9842%
BRANCH_DIRECT_CALL: 471777 0.943554%
BRANCH_INDIRECT_CALL: 144546 0.289092%
BRANCH_RETURN: 616324 1.23265%
BRANCH_OTHER: 0 0%

