Initialize SIGNATURE TABLE
ST_SET: 1
ST_WAY: 256
ST_TAG_BIT: 16
ST_TAG_MASK: ffff

Initialize PATTERN TABLE
PT_SET: 512
PT_WAY: 4
SIG_DELTA_BIT: 7
C_SIG_BIT: 4
C_DELTA_BIT: 4

Initialize PREFETCH FILTER
FILTER_SET: 1024

*** ChampSim Multicore Out-of-Order Simulator ***

Warmup Instructions: 50000000
Simulation Instructions: 50000000
Number of CPUs: 1
LLC sets: 2048
LLC ways: 16
Off-chip DRAM Size: 4096 MB Channels: 1 Width: 64-bit Data Rate: 3200 MT/s

CPU 0 runs /home/mbaradaran/ChampSim/dpc3_traces/client_007.champsimtrace.xz
CPU 0 L1I next line prefetcher
CPU 0 L1D next line prefetcher
Heartbeat CPU 0 instructions: 10000001 cycles: 3643208 heartbeat IPC: 2.74483 cumulative IPC: 2.74483 (Simulation time: 0 hr 1 min 36 sec) 
Heartbeat CPU 0 instructions: 20000003 cycles: 7035780 heartbeat IPC: 2.94762 cumulative IPC: 2.84261 (Simulation time: 0 hr 3 min 6 sec) 
Heartbeat CPU 0 instructions: 30000000 cycles: 10908150 heartbeat IPC: 2.5824 cumulative IPC: 2.75024 (Simulation time: 0 hr 4 min 59 sec) 
Heartbeat CPU 0 instructions: 40000003 cycles: 15068676 heartbeat IPC: 2.40354 cumulative IPC: 2.65451 (Simulation time: 0 hr 6 min 39 sec) 
Heartbeat CPU 0 instructions: 50000002 cycles: 18474293 heartbeat IPC: 2.93633 cumulative IPC: 2.70646 (Simulation time: 0 hr 8 min 8 sec) 

Warmup complete CPU 0 instructions: 50000002 cycles: 18474293 (Simulation time: 0 hr 8 min 8 sec) 

Heartbeat CPU 0 instructions: 60000003 cycles: 25697502 heartbeat IPC: 1.38443 cumulative IPC: 1.38443 (Simulation time: 0 hr 9 min 43 sec) 
Heartbeat CPU 0 instructions: 70000003 cycles: 34799552 heartbeat IPC: 1.09865 cumulative IPC: 1.2251 (Simulation time: 0 hr 11 min 25 sec) 
Heartbeat CPU 0 instructions: 80000002 cycles: 40309056 heartbeat IPC: 1.81505 cumulative IPC: 1.37396 (Simulation time: 0 hr 12 min 40 sec) 
Heartbeat CPU 0 instructions: 90000002 cycles: 48367159 heartbeat IPC: 1.24099 cumulative IPC: 1.33811 (Simulation time: 0 hr 14 min 10 sec) 
Heartbeat CPU 0 instructions: 100000002 cycles: 57356278 heartbeat IPC: 1.11246 cumulative IPC: 1.28594 (Simulation time: 0 hr 15 min 44 sec) 
Finished CPU 0 instructions: 50000000 cycles: 38881985 cumulative IPC: 1.28594 (Simulation time: 0 hr 15 min 44 sec) 

ChampSim completed all CPUs

Region of Interest Statistics

CPU 0 cumulative IPC: 1.28594 instructions: 50000000 cycles: 38881985

SHEET
IPC : 1.28594

L1D TOTAL     ACCESS:   21480691  HIT:   20310954  MISS:    1169737
L1D LOAD      ACCESS:    8504232  HIT:    7968153  MISS:     536079
L1D RFO       ACCESS:    4875999  HIT:    4785010  MISS:      90989
L1D PREFETCH  ACCESS:    8100460  HIT:    7557791  MISS:     542669
L1D WRITEBACK ACCESS:          0  HIT:          0  MISS:          0
L1D PREFETCH  REQUESTED:    8557706  ISSUED:    8316851  USEFUL:     161706  USELESS:     380978
L1D AVERAGE MISS LATENCY: 34.3295 cycles
L1D

SHEET
L1D-total_access : 21480691
L1D-total_hit : 20310954
L1D-total_miss : 1169737
L1D-load_access : 8504232
L1D-load_hit : 7968153
L1D-load_miss : 536079
L1D-rfo_access : 4875999
L1D-rfo_hit : 4785010
L1D-rfo_miss : 90989
L1D-prefetch_access : 8100460
L1D-prefetch_hit : 7557791
L1D-prefetch_miss : 542669
L1D-writeback_access : 0
L1D-writeback_hit : 0
L1D-writeback_miss : 0
L1D-prefetch_requested : 8557706
L1D-prefetch_issued : 8316851
L1D-prefetch_useful : 161706
L1D-prefetch_useless : 380978
L1D-Avg_miss_latency : 34.3295

L1I TOTAL     ACCESS:   10438861  HIT:    8989541  MISS:    1449320
L1I LOAD      ACCESS:    9107047  HIT:    8811632  MISS:     295415
L1I RFO       ACCESS:          0  HIT:          0  MISS:          0
L1I PREFETCH  ACCESS:    1331814  HIT:     177909  MISS:    1153905
L1I WRITEBACK ACCESS:          0  HIT:          0  MISS:          0
L1I PREFETCH  REQUESTED:    1415987  ISSUED:    1415983  USEFUL:     810643  USELESS:     343238
L1I AVERAGE MISS LATENCY: 15.9703 cycles
L1I

SHEET
L1I-total_access : 10438861
L1I-total_hit : 8989541
L1I-total_miss : 1449320
L1I-load_access : 9107047
L1I-load_hit : 8811632
L1I-load_miss : 295415
L1I-rfo_access : 0
L1I-rfo_hit : 0
L1I-rfo_miss : 0
L1I-prefetch_access : 1331814
L1I-prefetch_hit : 177909
L1I-prefetch_miss : 1153905
L1I-writeback_access : 0
L1I-writeback_hit : 0
L1I-writeback_miss : 0
L1I-prefetch_requested : 1415987
L1I-prefetch_issued : 1415983
L1I-prefetch_useful : 810643
L1I-prefetch_useless : 343238
L1I-Avg_miss_latency : 15.9703

L2C TOTAL     ACCESS:    3850642  HIT:    3636844  MISS:     213798
L2C LOAD      ACCESS:     780329  HIT:     707709  MISS:      72620
L2C RFO       ACCESS:      89437  HIT:      47808  MISS:      41629
L2C PREFETCH  ACCESS:    2653080  HIT:    2553709  MISS:      99371
L2C WRITEBACK ACCESS:     327796  HIT:     327618  MISS:        178
L2C PREFETCH  REQUESTED:    3080615  ISSUED:    3077618  USEFUL:      10343  USELESS:      88962
L2C AVERAGE MISS LATENCY: 122.346 cycles
L2C

SHEET
L2C-total_access : 3850642
L2C-total_hit : 3636844
L2C-total_miss : 213798
L2C-load_access : 780329
L2C-load_hit : 707709
L2C-load_miss : 72620
L2C-rfo_access : 89437
L2C-rfo_hit : 47808
L2C-rfo_miss : 41629
L2C-prefetch_access : 2653080
L2C-prefetch_hit : 2553709
L2C-prefetch_miss : 99371
L2C-writeback_access : 327796
L2C-writeback_hit : 327618
L2C-writeback_miss : 178
L2C-prefetch_requested : 3080615
L2C-prefetch_issued : 3077618
L2C-prefetch_useful : 10343
L2C-prefetch_useless : 88962
L2C-Avg_miss_latency : 122.346

LLC TOTAL     ACCESS:     966450  HIT:     793402  MISS:     173048
LLC LOAD      ACCESS:      72529  HIT:      37132  MISS:      35397
LLC RFO       ACCESS:      41629  HIT:       7265  MISS:      34364
LLC PREFETCH  ACCESS:     777619  HIT:     674666  MISS:     102953
LLC WRITEBACK ACCESS:      74673  HIT:      74339  MISS:        334
LLC PREFETCH  REQUESTED:          0  ISSUED:          0  USEFUL:      18599  USELESS:      85540
LLC AVERAGE MISS LATENCY: 180.355 cycles
LLC

SHEET
LLC-total_access : 966450
LLC-total_hit : 793402
LLC-total_miss : 173048
LLC-load_access : 72529
LLC-load_hit : 37132
LLC-load_miss : 35397
LLC-rfo_access : 41629
LLC-rfo_hit : 7265
LLC-rfo_miss : 34364
LLC-prefetch_access : 777619
LLC-prefetch_hit : 674666
LLC-prefetch_miss : 102953
LLC-writeback_access : 74673
LLC-writeback_hit : 74339
LLC-writeback_miss : 334
LLC-prefetch_requested : 0
LLC-prefetch_issued : 0
LLC-prefetch_useful : 18599
LLC-prefetch_useless : 85540
LLC-Avg_miss_latency : 180.355

Major fault: 0 Minor fault: 4420
I-Shadow cache 408 bytes
Touched + WorthPF tables 3072 bytes 
MMA filter 174 bytes 
FNL filter 272 bytes 
TOTAL PREFETCHER STORAGE SIZE: 13014 bytes
CPU 0 L1I next line prefetcher final stats

 morteza stats start 

SHEET
fnlfilter_access_cntr : 9215277
iShadow_access_cntr : 40716892
missahead_access_cntr : 1901730
mmafilter_access_cntr : 3437101
touched_access_cntr : 6788058
worthpf_access_cntr : 9292358


morteza stats endCPU 0 L1D next line prefetcher final stats

DRAM Statistics
 CHANNEL 0
 RQ ROW_BUFFER_HIT:      36733  ROW_BUFFER_MISS:     135967
 DBUS_CONGESTED:      96933
 WQ ROW_BUFFER_HIT:      12741  ROW_BUFFER_MISS:      44582  FULL:          0

 AVG_CONGESTED_CYCLE: 5

CPU 0 Branch Prediction Accuracy: 98.8607% MPKI: 1.8623 Average ROB Occupancy at Mispredict: 105.461

Branch types
NOT_BRANCH: 41826773 83.6535%
BRANCH_DIRECT_JUMP: 735330 1.47066%
BRANCH_INDIRECT: 269194 0.538388%
BRANCH_CONDITIONAL: 5957947 11.9159%
BRANCH_DIRECT_CALL: 368758 0.737516%
BRANCH_INDIRECT_CALL: 226975 0.45395%
BRANCH_RETURN: 614696 1.22939%
BRANCH_OTHER: 0 0%

