Initialize SIGNATURE TABLE
ST_SET: 1
ST_WAY: 256
ST_TAG_BIT: 16
ST_TAG_MASK: ffff

Initialize PATTERN TABLE
PT_SET: 512
PT_WAY: 4
SIG_DELTA_BIT: 7
C_SIG_BIT: 4
C_DELTA_BIT: 4

Initialize PREFETCH FILTER
FILTER_SET: 1024

*** ChampSim Multicore Out-of-Order Simulator ***

Warmup Instructions: 50000000
Simulation Instructions: 50000000
Number of CPUs: 1
LLC sets: 2048
LLC ways: 16
Off-chip DRAM Size: 4096 MB Channels: 1 Width: 64-bit Data Rate: 3200 MT/s

CPU 0 runs /home/mbaradaran/ChampSim/dpc3_traces/client_008.champsimtrace.xz
CPU 0 L1I next line prefetcher
CPU 0 L1D next line prefetcher
Heartbeat CPU 0 instructions: 10000001 cycles: 3755397 heartbeat IPC: 2.66283 cumulative IPC: 2.66283 (Simulation time: 0 hr 1 min 32 sec) 
Heartbeat CPU 0 instructions: 20000001 cycles: 7532387 heartbeat IPC: 2.64761 cumulative IPC: 2.6552 (Simulation time: 0 hr 3 min 13 sec) 
Heartbeat CPU 0 instructions: 30000000 cycles: 11261733 heartbeat IPC: 2.68144 cumulative IPC: 2.66389 (Simulation time: 0 hr 4 min 55 sec) 
Heartbeat CPU 0 instructions: 40000002 cycles: 15057630 heartbeat IPC: 2.63442 cumulative IPC: 2.65646 (Simulation time: 0 hr 6 min 42 sec) 
Heartbeat CPU 0 instructions: 50000003 cycles: 18851454 heartbeat IPC: 2.63586 cumulative IPC: 2.65232 (Simulation time: 0 hr 8 min 24 sec) 

Warmup complete CPU 0 instructions: 50000003 cycles: 18851454 (Simulation time: 0 hr 8 min 24 sec) 

Heartbeat CPU 0 instructions: 60000000 cycles: 27475532 heartbeat IPC: 1.15954 cumulative IPC: 1.15954 (Simulation time: 0 hr 10 min 0 sec) 
Heartbeat CPU 0 instructions: 70000001 cycles: 35581699 heartbeat IPC: 1.23363 cumulative IPC: 1.19544 (Simulation time: 0 hr 11 min 47 sec) 
Heartbeat CPU 0 instructions: 80000001 cycles: 44940170 heartbeat IPC: 1.06855 cumulative IPC: 1.14992 (Simulation time: 0 hr 13 min 12 sec) 
Heartbeat CPU 0 instructions: 90000000 cycles: 52400984 heartbeat IPC: 1.34034 cumulative IPC: 1.19227 (Simulation time: 0 hr 14 min 39 sec) 
Heartbeat CPU 0 instructions: 100000001 cycles: 60506180 heartbeat IPC: 1.23378 cumulative IPC: 1.20034 (Simulation time: 0 hr 16 min 17 sec) 
Finished CPU 0 instructions: 50000002 cycles: 41654727 cumulative IPC: 1.20034 (Simulation time: 0 hr 16 min 17 sec) 

ChampSim completed all CPUs

Region of Interest Statistics

CPU 0 cumulative IPC: 1.20034 instructions: 50000002 cycles: 41654727

SHEET
IPC : 1.20034

L1D TOTAL     ACCESS:   20711790  HIT:   19082899  MISS:    1628891
L1D LOAD      ACCESS:    8167110  HIT:    7368966  MISS:     798144
L1D RFO       ACCESS:    4831604  HIT:    4722748  MISS:     108856
L1D PREFETCH  ACCESS:    7713076  HIT:    6991185  MISS:     721891
L1D WRITEBACK ACCESS:          0  HIT:          0  MISS:          0
L1D PREFETCH  REQUESTED:    8236435  ISSUED:    8068619  USEFUL:     201569  USELESS:     520327
L1D AVERAGE MISS LATENCY: 32.5844 cycles
L1D

SHEET
L1D-total_access : 20711790
L1D-total_hit : 19082899
L1D-total_miss : 1628891
L1D-load_access : 8167110
L1D-load_hit : 7368966
L1D-load_miss : 798144
L1D-rfo_access : 4831604
L1D-rfo_hit : 4722748
L1D-rfo_miss : 108856
L1D-prefetch_access : 7713076
L1D-prefetch_hit : 6991185
L1D-prefetch_miss : 721891
L1D-writeback_access : 0
L1D-writeback_hit : 0
L1D-writeback_miss : 0
L1D-prefetch_requested : 8236435
L1D-prefetch_issued : 8068619
L1D-prefetch_useful : 201569
L1D-prefetch_useless : 520327
L1D-Avg_miss_latency : 32.5844

L1I TOTAL     ACCESS:   11187014  HIT:    9566021  MISS:    1620993
L1I LOAD      ACCESS:    9721613  HIT:    9242342  MISS:     479271
L1I RFO       ACCESS:          0  HIT:          0  MISS:          0
L1I PREFETCH  ACCESS:    1465401  HIT:     323679  MISS:    1141722
L1I WRITEBACK ACCESS:          0  HIT:          0  MISS:          0
L1I PREFETCH  REQUESTED:    1581282  ISSUED:    1581282  USEFUL:     713524  USELESS:     428269
L1I AVERAGE MISS LATENCY: 17.1211 cycles
L1I

SHEET
L1I-total_access : 11187014
L1I-total_hit : 9566021
L1I-total_miss : 1620993
L1I-load_access : 9721613
L1I-load_hit : 9242342
L1I-load_miss : 479271
L1I-rfo_access : 0
L1I-rfo_hit : 0
L1I-rfo_miss : 0
L1I-prefetch_access : 1465401
L1I-prefetch_hit : 323679
L1I-prefetch_miss : 1141722
L1I-writeback_access : 0
L1I-writeback_hit : 0
L1I-writeback_miss : 0
L1I-prefetch_requested : 1581282
L1I-prefetch_issued : 1581282
L1I-prefetch_useful : 713524
L1I-prefetch_useless : 428269
L1I-Avg_miss_latency : 17.1211

L2C TOTAL     ACCESS:    4702317  HIT:    4231353  MISS:     470964
L2C LOAD      ACCESS:    1198661  HIT:    1024177  MISS:     174484
L2C RFO       ACCESS:     103618  HIT:      18294  MISS:      85324
L2C PREFETCH  ACCESS:    3218039  HIT:    3007334  MISS:     210705
L2C WRITEBACK ACCESS:     181999  HIT:     181548  MISS:        451
L2C PREFETCH  REQUESTED:    3906166  ISSUED:    3901484  USEFUL:      22163  USELESS:     190405
L2C AVERAGE MISS LATENCY: 75.9887 cycles
L2C

SHEET
L2C-total_access : 4702317
L2C-total_hit : 4231353
L2C-total_miss : 470964
L2C-load_access : 1198661
L2C-load_hit : 1024177
L2C-load_miss : 174484
L2C-rfo_access : 103618
L2C-rfo_hit : 18294
L2C-rfo_miss : 85324
L2C-prefetch_access : 3218039
L2C-prefetch_hit : 3007334
L2C-prefetch_miss : 210705
L2C-writeback_access : 181999
L2C-writeback_hit : 181548
L2C-writeback_miss : 451
L2C-prefetch_requested : 3906166
L2C-prefetch_issued : 3901484
L2C-prefetch_useful : 22163
L2C-prefetch_useless : 190405
L2C-Avg_miss_latency : 75.9887

LLC TOTAL     ACCESS:    1418424  HIT:    1231278  MISS:     187146
LLC LOAD      ACCESS:     174394  HIT:     151874  MISS:      22520
LLC RFO       ACCESS:      85317  HIT:      17486  MISS:      67831
LLC PREFETCH  ACCESS:    1022790  HIT:     926357  MISS:      96433
LLC WRITEBACK ACCESS:     135923  HIT:     135561  MISS:        362
LLC PREFETCH  REQUESTED:          0  ISSUED:          0  USEFUL:      25822  USELESS:      79711
LLC AVERAGE MISS LATENCY: 167.158 cycles
LLC

SHEET
LLC-total_access : 1418424
LLC-total_hit : 1231278
LLC-total_miss : 187146
LLC-load_access : 174394
LLC-load_hit : 151874
LLC-load_miss : 22520
LLC-rfo_access : 85317
LLC-rfo_hit : 17486
LLC-rfo_miss : 67831
LLC-prefetch_access : 1022790
LLC-prefetch_hit : 926357
LLC-prefetch_miss : 96433
LLC-writeback_access : 135923
LLC-writeback_hit : 135561
LLC-writeback_miss : 362
LLC-prefetch_requested : 0
LLC-prefetch_issued : 0
LLC-prefetch_useful : 25822
LLC-prefetch_useless : 79711
LLC-Avg_miss_latency : 167.158

Major fault: 0 Minor fault: 5312
I-Shadow cache 408 bytes
Touched + WorthPF tables 3072 bytes 
MMA filter 174 bytes 
FNL filter 272 bytes 
TOTAL PREFETCHER STORAGE SIZE: 13014 bytes
CPU 0 L1I next line prefetcher final stats

 morteza stats start 

SHEET
fnlfilter_access_cntr : 16108434
iShadow_access_cntr : 42060996
missahead_access_cntr : 2987246
mmafilter_access_cntr : 4862060
touched_access_cntr : 10736829
worthpf_access_cntr : 16497031


morteza stats endCPU 0 L1D next line prefetcher final stats

DRAM Statistics
 CHANNEL 0
 RQ ROW_BUFFER_HIT:      54025  ROW_BUFFER_MISS:     132745
 DBUS_CONGESTED:     103710
 WQ ROW_BUFFER_HIT:      23737  ROW_BUFFER_MISS:      66119  FULL:          0

 AVG_CONGESTED_CYCLE: 6

CPU 0 Branch Prediction Accuracy: 98.6482% MPKI: 3.1551 Average ROB Occupancy at Mispredict: 88.1233

Branch types
NOT_BRANCH: 38329598 76.6592%
BRANCH_DIRECT_JUMP: 510116 1.02023%
BRANCH_INDIRECT: 225730 0.45146%
BRANCH_CONDITIONAL: 8366762 16.7335%
BRANCH_DIRECT_CALL: 600748 1.2015%
BRANCH_INDIRECT_CALL: 682990 1.36598%
BRANCH_RETURN: 1283974 2.56795%
BRANCH_OTHER: 0 0%

