Initialize SIGNATURE TABLE
ST_SET: 1
ST_WAY: 256
ST_TAG_BIT: 16
ST_TAG_MASK: ffff

Initialize PATTERN TABLE
PT_SET: 512
PT_WAY: 4
SIG_DELTA_BIT: 7
C_SIG_BIT: 4
C_DELTA_BIT: 4

Initialize PREFETCH FILTER
FILTER_SET: 1024

*** ChampSim Multicore Out-of-Order Simulator ***

Warmup Instructions: 50000000
Simulation Instructions: 50000000
Number of CPUs: 1
LLC sets: 2048
LLC ways: 16
Off-chip DRAM Size: 4096 MB Channels: 1 Width: 64-bit Data Rate: 3200 MT/s

CPU 0 runs /home/mbaradaran/ChampSim/dpc3_traces/client_003.champsimtrace.xz
CPU 0 L1I next line prefetcher
CPU 0 L1D next line prefetcher
Heartbeat CPU 0 instructions: 10000000 cycles: 3479223 heartbeat IPC: 2.8742 cumulative IPC: 2.8742 (Simulation time: 0 hr 1 min 32 sec) 
Heartbeat CPU 0 instructions: 20000002 cycles: 6934357 heartbeat IPC: 2.89424 cumulative IPC: 2.88419 (Simulation time: 0 hr 3 min 10 sec) 
Heartbeat CPU 0 instructions: 30000003 cycles: 10495786 heartbeat IPC: 2.80786 cumulative IPC: 2.85829 (Simulation time: 0 hr 4 min 50 sec) 
Heartbeat CPU 0 instructions: 40000001 cycles: 14112690 heartbeat IPC: 2.7648 cumulative IPC: 2.83433 (Simulation time: 0 hr 6 min 29 sec) 
Heartbeat CPU 0 instructions: 50000003 cycles: 17658269 heartbeat IPC: 2.82041 cumulative IPC: 2.83153 (Simulation time: 0 hr 8 min 4 sec) 

Warmup complete CPU 0 instructions: 50000003 cycles: 17658269 (Simulation time: 0 hr 8 min 4 sec) 

Heartbeat CPU 0 instructions: 60000002 cycles: 25314058 heartbeat IPC: 1.3062 cumulative IPC: 1.3062 (Simulation time: 0 hr 9 min 9 sec) 
Heartbeat CPU 0 instructions: 70000001 cycles: 32744919 heartbeat IPC: 1.34574 cumulative IPC: 1.32568 (Simulation time: 0 hr 10 min 22 sec) 
Heartbeat CPU 0 instructions: 80000001 cycles: 40876202 heartbeat IPC: 1.22982 cumulative IPC: 1.2921 (Simulation time: 0 hr 11 min 40 sec) 
Heartbeat CPU 0 instructions: 90000000 cycles: 49904232 heartbeat IPC: 1.10766 cumulative IPC: 1.24047 (Simulation time: 0 hr 12 min 50 sec) 
Heartbeat CPU 0 instructions: 100000003 cycles: 60906331 heartbeat IPC: 0.908918 cumulative IPC: 1.15612 (Simulation time: 0 hr 14 min 11 sec) 
Finished CPU 0 instructions: 50000000 cycles: 43248062 cumulative IPC: 1.15612 (Simulation time: 0 hr 14 min 11 sec) 

ChampSim completed all CPUs

Region of Interest Statistics

CPU 0 cumulative IPC: 1.15612 instructions: 50000000 cycles: 43248062

SHEET
IPC : 1.15612

L1D TOTAL     ACCESS:   18554272  HIT:   18057925  MISS:     496347
L1D LOAD      ACCESS:    6488422  HIT:    6364959  MISS:     123463
L1D RFO       ACCESS:    5968047  HIT:    5734408  MISS:     233639
L1D PREFETCH  ACCESS:    6097803  HIT:    5958558  MISS:     139245
L1D WRITEBACK ACCESS:          0  HIT:          0  MISS:          0
L1D PREFETCH  REQUESTED:    6531704  ISSUED:    6380814  USEFUL:      70889  USELESS:      68403
L1D AVERAGE MISS LATENCY: 119.038 cycles
L1D

SHEET
L1D-total_access : 18554272
L1D-total_hit : 18057925
L1D-total_miss : 496347
L1D-load_access : 6488422
L1D-load_hit : 6364959
L1D-load_miss : 123463
L1D-rfo_access : 5968047
L1D-rfo_hit : 5734408
L1D-rfo_miss : 233639
L1D-prefetch_access : 6097803
L1D-prefetch_hit : 5958558
L1D-prefetch_miss : 139245
L1D-writeback_access : 0
L1D-writeback_hit : 0
L1D-writeback_miss : 0
L1D-prefetch_requested : 6531704
L1D-prefetch_issued : 6380814
L1D-prefetch_useful : 70889
L1D-prefetch_useless : 68403
L1D-Avg_miss_latency : 119.038

L1I TOTAL     ACCESS:   11217783  HIT:    9374891  MISS:    1842892
L1I LOAD      ACCESS:    9573331  HIT:    8731287  MISS:     842044
L1I RFO       ACCESS:          0  HIT:          0  MISS:          0
L1I PREFETCH  ACCESS:    1644452  HIT:     643604  MISS:    1000848
L1I WRITEBACK ACCESS:          0  HIT:          0  MISS:          0
L1I PREFETCH  REQUESTED:    1837418  ISSUED:    1837418  USEFUL:     500567  USELESS:     500279
L1I AVERAGE MISS LATENCY: 17.2517 cycles
L1I

SHEET
L1I-total_access : 11217783
L1I-total_hit : 9374891
L1I-total_miss : 1842892
L1I-load_access : 9573331
L1I-load_hit : 8731287
L1I-load_miss : 842044
L1I-rfo_access : 0
L1I-rfo_hit : 0
L1I-rfo_miss : 0
L1I-prefetch_access : 1644452
L1I-prefetch_hit : 643604
L1I-prefetch_miss : 1000848
L1I-writeback_access : 0
L1I-writeback_hit : 0
L1I-writeback_miss : 0
L1I-prefetch_requested : 1837418
L1I-prefetch_issued : 1837418
L1I-prefetch_useful : 500567
L1I-prefetch_useless : 500279
L1I-Avg_miss_latency : 17.2517

L2C TOTAL     ACCESS:    3575996  HIT:    3160890  MISS:     415106
L2C LOAD      ACCESS:     883423  HIT:     829128  MISS:      54295
L2C RFO       ACCESS:     231553  HIT:      24598  MISS:     206955
L2C PREFETCH  ACCESS:    2191706  HIT:    2038967  MISS:     152739
L2C WRITEBACK ACCESS:     269314  HIT:     268197  MISS:       1117
L2C PREFETCH  REQUESTED:    2606800  ISSUED:    2606581  USEFUL:      17482  USELESS:     135477
L2C AVERAGE MISS LATENCY: 158.008 cycles
L2C

SHEET
L2C-total_access : 3575996
L2C-total_hit : 3160890
L2C-total_miss : 415106
L2C-load_access : 883423
L2C-load_hit : 829128
L2C-load_miss : 54295
L2C-rfo_access : 231553
L2C-rfo_hit : 24598
L2C-rfo_miss : 206955
L2C-prefetch_access : 2191706
L2C-prefetch_hit : 2038967
L2C-prefetch_miss : 152739
L2C-writeback_access : 269314
L2C-writeback_hit : 268197
L2C-writeback_miss : 1117
L2C-prefetch_requested : 2606800
L2C-prefetch_issued : 2606581
L2C-prefetch_useful : 17482
L2C-prefetch_useless : 135477
L2C-Avg_miss_latency : 158.008

LLC TOTAL     ACCESS:    1093525  HIT:     797682  MISS:     295843
LLC LOAD      ACCESS:      54237  HIT:      39726  MISS:      14511
LLC RFO       ACCESS:     206939  HIT:      33811  MISS:     173128
LLC PREFETCH  ACCESS:     606969  HIT:     499141  MISS:     107828
LLC WRITEBACK ACCESS:     225380  HIT:     225004  MISS:        376
LLC PREFETCH  REQUESTED:          0  ISSUED:          0  USEFUL:      10724  USELESS:      98787
LLC AVERAGE MISS LATENCY: 220.239 cycles
LLC

SHEET
LLC-total_access : 1093525
LLC-total_hit : 797682
LLC-total_miss : 295843
LLC-load_access : 54237
LLC-load_hit : 39726
LLC-load_miss : 14511
LLC-rfo_access : 206939
LLC-rfo_hit : 33811
LLC-rfo_miss : 173128
LLC-prefetch_access : 606969
LLC-prefetch_hit : 499141
LLC-prefetch_miss : 107828
LLC-writeback_access : 225380
LLC-writeback_hit : 225004
LLC-writeback_miss : 376
LLC-prefetch_requested : 0
LLC-prefetch_issued : 0
LLC-prefetch_useful : 10724
LLC-prefetch_useless : 98787
LLC-Avg_miss_latency : 220.239

Major fault: 0 Minor fault: 5053
I-Shadow cache 408 bytes
Touched + WorthPF tables 3072 bytes 
MMA filter 174 bytes 
FNL filter 272 bytes 
TOTAL PREFETCHER STORAGE SIZE: 13014 bytes
CPU 0 L1I next line prefetcher final stats

 morteza stats start 

SHEET
fnlfilter_access_cntr : 13317909
iShadow_access_cntr : 43420192
missahead_access_cntr : 3100877
mmafilter_access_cntr : 3405617
touched_access_cntr : 9395838
worthpf_access_cntr : 13722676


morteza stats endCPU 0 L1D next line prefetcher final stats

DRAM Statistics
 CHANNEL 0
 RQ ROW_BUFFER_HIT:     105442  ROW_BUFFER_MISS:     190022
 DBUS_CONGESTED:     265702
 WQ ROW_BUFFER_HIT:      57812  ROW_BUFFER_MISS:     122273  FULL:          0

 AVG_CONGESTED_CYCLE: 6

CPU 0 Branch Prediction Accuracy: 98.6631% MPKI: 2.66884 Average ROB Occupancy at Mispredict: 45.8715

Branch types
NOT_BRANCH: 40018660 80.0373%
BRANCH_DIRECT_JUMP: 370859 0.741718%
BRANCH_INDIRECT: 83252 0.166504%
BRANCH_CONDITIONAL: 7877421 15.7548%
BRANCH_DIRECT_CALL: 722308 1.44462%
BRANCH_INDIRECT_CALL: 101901 0.203802%
BRANCH_RETURN: 825353 1.65071%
BRANCH_OTHER: 0 0%

