Initialize SIGNATURE TABLE
ST_SET: 1
ST_WAY: 256
ST_TAG_BIT: 16
ST_TAG_MASK: ffff

Initialize PATTERN TABLE
PT_SET: 512
PT_WAY: 4
SIG_DELTA_BIT: 7
C_SIG_BIT: 4
C_DELTA_BIT: 4

Initialize PREFETCH FILTER
FILTER_SET: 1024

*** ChampSim Multicore Out-of-Order Simulator ***

Warmup Instructions: 50000000
Simulation Instructions: 50000000
Number of CPUs: 1
LLC sets: 2048
LLC ways: 16
Off-chip DRAM Size: 4096 MB Channels: 1 Width: 64-bit Data Rate: 3200 MT/s

CPU 0 runs /home/mbaradaran/ChampSim/dpc3_traces/client_001.champsimtrace.xz
CPU 0 L1I next line prefetcher
CPU 0 L1D next line prefetcher
Heartbeat CPU 0 instructions: 10000003 cycles: 3410440 heartbeat IPC: 2.93217 cumulative IPC: 2.93217 (Simulation time: 0 hr 1 min 20 sec) 
Heartbeat CPU 0 instructions: 20000001 cycles: 7119208 heartbeat IPC: 2.69631 cumulative IPC: 2.8093 (Simulation time: 0 hr 2 min 54 sec) 
Heartbeat CPU 0 instructions: 30000001 cycles: 10482265 heartbeat IPC: 2.97349 cumulative IPC: 2.86198 (Simulation time: 0 hr 4 min 26 sec) 
Heartbeat CPU 0 instructions: 40000003 cycles: 14352148 heartbeat IPC: 2.58406 cumulative IPC: 2.78704 (Simulation time: 0 hr 6 min 8 sec) 
Heartbeat CPU 0 instructions: 50000003 cycles: 17649368 heartbeat IPC: 3.03286 cumulative IPC: 2.83296 (Simulation time: 0 hr 7 min 37 sec) 

Warmup complete CPU 0 instructions: 50000003 cycles: 17649368 (Simulation time: 0 hr 7 min 37 sec) 

Heartbeat CPU 0 instructions: 60000000 cycles: 27199287 heartbeat IPC: 1.04713 cumulative IPC: 1.04713 (Simulation time: 0 hr 9 min 5 sec) 
Heartbeat CPU 0 instructions: 70000000 cycles: 34364229 heartbeat IPC: 1.39568 cumulative IPC: 1.19654 (Simulation time: 0 hr 10 min 17 sec) 
Heartbeat CPU 0 instructions: 80000002 cycles: 43836542 heartbeat IPC: 1.05571 cumulative IPC: 1.1456 (Simulation time: 0 hr 12 min 0 sec) 
Heartbeat CPU 0 instructions: 90000000 cycles: 50919065 heartbeat IPC: 1.41193 cumulative IPC: 1.2023 (Simulation time: 0 hr 13 min 14 sec) 
Heartbeat CPU 0 instructions: 100000002 cycles: 60182268 heartbeat IPC: 1.07954 cumulative IPC: 1.17556 (Simulation time: 0 hr 14 min 35 sec) 
Finished CPU 0 instructions: 50000000 cycles: 42532903 cumulative IPC: 1.17556 (Simulation time: 0 hr 14 min 35 sec) 

ChampSim completed all CPUs

Region of Interest Statistics

CPU 0 cumulative IPC: 1.17556 instructions: 50000000 cycles: 42532903

SHEET
IPC : 1.17556

L1D TOTAL     ACCESS:   21550487  HIT:   20713840  MISS:     836647
L1D LOAD      ACCESS:    8974270  HIT:    8579671  MISS:     394599
L1D RFO       ACCESS:    4046613  HIT:    3987727  MISS:      58886
L1D PREFETCH  ACCESS:    8529604  HIT:    8146442  MISS:     383162
L1D WRITEBACK ACCESS:          0  HIT:          0  MISS:          0
L1D PREFETCH  REQUESTED:    9022112  ISSUED:    8712514  USEFUL:     130044  USELESS:     253091
L1D AVERAGE MISS LATENCY: 47.902 cycles
L1D

SHEET
L1D-total_access : 21550487
L1D-total_hit : 20713840
L1D-total_miss : 836647
L1D-load_access : 8974270
L1D-load_hit : 8579671
L1D-load_miss : 394599
L1D-rfo_access : 4046613
L1D-rfo_hit : 3987727
L1D-rfo_miss : 58886
L1D-prefetch_access : 8529604
L1D-prefetch_hit : 8146442
L1D-prefetch_miss : 383162
L1D-writeback_access : 0
L1D-writeback_hit : 0
L1D-writeback_miss : 0
L1D-prefetch_requested : 9022112
L1D-prefetch_issued : 8712514
L1D-prefetch_useful : 130044
L1D-prefetch_useless : 253091
L1D-Avg_miss_latency : 47.902

L1I TOTAL     ACCESS:   10055918  HIT:    8996884  MISS:    1059034
L1I LOAD      ACCESS:    8970035  HIT:    8650918  MISS:     319117
L1I RFO       ACCESS:          0  HIT:          0  MISS:          0
L1I PREFETCH  ACCESS:    1085883  HIT:     345966  MISS:     739917
L1I WRITEBACK ACCESS:          0  HIT:          0  MISS:          0
L1I PREFETCH  REQUESTED:    1124595  ISSUED:    1124595  USEFUL:     512818  USELESS:     227099
L1I AVERAGE MISS LATENCY: 16.9227 cycles
L1I

SHEET
L1I-total_access : 10055918
L1I-total_hit : 8996884
L1I-total_miss : 1059034
L1I-load_access : 8970035
L1I-load_hit : 8650918
L1I-load_miss : 319117
L1I-rfo_access : 0
L1I-rfo_hit : 0
L1I-rfo_miss : 0
L1I-prefetch_access : 1085883
L1I-prefetch_hit : 345966
L1I-prefetch_miss : 739917
L1I-writeback_access : 0
L1I-writeback_hit : 0
L1I-writeback_miss : 0
L1I-prefetch_requested : 1124595
L1I-prefetch_issued : 1124595
L1I-prefetch_useful : 512818
L1I-prefetch_useless : 227099
L1I-Avg_miss_latency : 16.9227

L2C TOTAL     ACCESS:    2884195  HIT:    2575234  MISS:     308961
L2C LOAD      ACCESS:     680983  HIT:     563859  MISS:     117124
L2C RFO       ACCESS:      58210  HIT:      21454  MISS:      36756
L2C PREFETCH  ACCESS:    1955369  HIT:    1800542  MISS:     154827
L2C WRITEBACK ACCESS:     189633  HIT:     189379  MISS:        254
L2C PREFETCH  REQUESTED:    2193787  ISSUED:    2191289  USEFUL:      15158  USELESS:     138958
L2C AVERAGE MISS LATENCY: 104.952 cycles
L2C

SHEET
L2C-total_access : 2884195
L2C-total_hit : 2575234
L2C-total_miss : 308961
L2C-load_access : 680983
L2C-load_hit : 563859
L2C-load_miss : 117124
L2C-rfo_access : 58210
L2C-rfo_hit : 21454
L2C-rfo_miss : 36756
L2C-prefetch_access : 1955369
L2C-prefetch_hit : 1800542
L2C-prefetch_miss : 154827
L2C-writeback_access : 189633
L2C-writeback_hit : 189379
L2C-writeback_miss : 254
L2C-prefetch_requested : 2193787
L2C-prefetch_issued : 2191289
L2C-prefetch_useful : 15158
L2C-prefetch_useless : 138958
L2C-Avg_miss_latency : 104.952

LLC TOTAL     ACCESS:     817723  HIT:     617966  MISS:     199757
LLC LOAD      ACCESS:     116823  HIT:      72570  MISS:      44253
LLC RFO       ACCESS:      36756  HIT:       8627  MISS:      28129
LLC PREFETCH  ACCESS:     557828  HIT:     431208  MISS:     126620
LLC WRITEBACK ACCESS:     106316  HIT:     105561  MISS:        755
LLC PREFETCH  REQUESTED:          0  ISSUED:          0  USEFUL:      28283  USELESS:     100262
LLC AVERAGE MISS LATENCY: 183.933 cycles
LLC

SHEET
LLC-total_access : 817723
LLC-total_hit : 617966
LLC-total_miss : 199757
LLC-load_access : 116823
LLC-load_hit : 72570
LLC-load_miss : 44253
LLC-rfo_access : 36756
LLC-rfo_hit : 8627
LLC-rfo_miss : 28129
LLC-prefetch_access : 557828
LLC-prefetch_hit : 431208
LLC-prefetch_miss : 126620
LLC-writeback_access : 106316
LLC-writeback_hit : 105561
LLC-writeback_miss : 755
LLC-prefetch_requested : 0
LLC-prefetch_issued : 0
LLC-prefetch_useful : 28283
LLC-prefetch_useless : 100262
LLC-Avg_miss_latency : 183.933

Major fault: 0 Minor fault: 3440
I-Shadow cache 408 bytes
Touched + WorthPF tables 3072 bytes 
MMA filter 174 bytes 
FNL filter 272 bytes 
TOTAL PREFETCHER STORAGE SIZE: 13014 bytes
CPU 0 L1I next line prefetcher final stats

 morteza stats start 

SHEET
fnlfilter_access_cntr : 8020643
iShadow_access_cntr : 39201558
missahead_access_cntr : 2022883
mmafilter_access_cntr : 2964086
touched_access_cntr : 4981854
worthpf_access_cntr : 7641378


morteza stats endCPU 0 L1D next line prefetcher final stats

DRAM Statistics
 CHANNEL 0
 RQ ROW_BUFFER_HIT:      48046  ROW_BUFFER_MISS:     150950
 DBUS_CONGESTED:     117219
 WQ ROW_BUFFER_HIT:      15488  ROW_BUFFER_MISS:      65293  FULL:          0

 AVG_CONGESTED_CYCLE: 5

CPU 0 Branch Prediction Accuracy: 97.9037% MPKI: 3.63418 Average ROB Occupancy at Mispredict: 80.0242

Branch types
NOT_BRANCH: 41331357 82.6627%
BRANCH_DIRECT_JUMP: 455615 0.91123%
BRANCH_INDIRECT: 20390 0.04078%
BRANCH_CONDITIONAL: 6745372 13.4907%
BRANCH_DIRECT_CALL: 494532 0.989064%
BRANCH_INDIRECT_CALL: 228815 0.45763%
BRANCH_RETURN: 723559 1.44712%
BRANCH_OTHER: 0 0%

