Initialize SIGNATURE TABLE
ST_SET: 1
ST_WAY: 256
ST_TAG_BIT: 16
ST_TAG_MASK: ffff

Initialize PATTERN TABLE
PT_SET: 512
PT_WAY: 4
SIG_DELTA_BIT: 7
C_SIG_BIT: 4
C_DELTA_BIT: 4

Initialize PREFETCH FILTER
FILTER_SET: 1024

*** ChampSim Multicore Out-of-Order Simulator ***

Warmup Instructions: 50000000
Simulation Instructions: 50000000
Number of CPUs: 1
LLC sets: 2048
LLC ways: 16
Off-chip DRAM Size: 4096 MB Channels: 1 Width: 64-bit Data Rate: 3200 MT/s

CPU 0 runs /home/mbaradaran/ChampSim/dpc3_traces/server_030.champsimtrace.xz
CPU 0 L1I next line prefetcher
CPU 0 L1D next line prefetcher
Heartbeat CPU 0 instructions: 10000003 cycles: 3515813 heartbeat IPC: 2.84429 cumulative IPC: 2.84429 (Simulation time: 0 hr 1 min 46 sec) 
Heartbeat CPU 0 instructions: 20000003 cycles: 7030385 heartbeat IPC: 2.8453 cumulative IPC: 2.84479 (Simulation time: 0 hr 3 min 17 sec) 
Heartbeat CPU 0 instructions: 30000000 cycles: 10544044 heartbeat IPC: 2.84604 cumulative IPC: 2.84521 (Simulation time: 0 hr 5 min 13 sec) 
Heartbeat CPU 0 instructions: 40000002 cycles: 14057120 heartbeat IPC: 2.84651 cumulative IPC: 2.84553 (Simulation time: 0 hr 7 min 2 sec) 
Heartbeat CPU 0 instructions: 50000002 cycles: 17574746 heartbeat IPC: 2.84283 cumulative IPC: 2.84499 (Simulation time: 0 hr 8 min 56 sec) 

Warmup complete CPU 0 instructions: 50000002 cycles: 17574746 (Simulation time: 0 hr 8 min 56 sec) 

Heartbeat CPU 0 instructions: 60000000 cycles: 25631542 heartbeat IPC: 1.24119 cumulative IPC: 1.24119 (Simulation time: 0 hr 10 min 29 sec) 
Heartbeat CPU 0 instructions: 70000000 cycles: 33752122 heartbeat IPC: 1.23144 cumulative IPC: 1.23629 (Simulation time: 0 hr 12 min 7 sec) 
Heartbeat CPU 0 instructions: 80000001 cycles: 41795974 heartbeat IPC: 1.24319 cumulative IPC: 1.23858 (Simulation time: 0 hr 13 min 42 sec) 
*** Reached end of trace for Core: 0 Repeating trace: /home/mbaradaran/ChampSim/dpc3_traces/server_030.champsimtrace.xz
Heartbeat CPU 0 instructions: 90000002 cycles: 49892603 heartbeat IPC: 1.23508 cumulative IPC: 1.23771 (Simulation time: 0 hr 15 min 15 sec) 
Heartbeat CPU 0 instructions: 100000002 cycles: 57900969 heartbeat IPC: 1.24869 cumulative IPC: 1.23989 (Simulation time: 0 hr 16 min 52 sec) 
Finished CPU 0 instructions: 50000000 cycles: 40326223 cumulative IPC: 1.23989 (Simulation time: 0 hr 16 min 52 sec) 

ChampSim completed all CPUs

Region of Interest Statistics

CPU 0 cumulative IPC: 1.23989 instructions: 50000000 cycles: 40326223

SHEET
IPC : 1.23989

L1D TOTAL     ACCESS:   19949568  HIT:   17872680  MISS:    2076888
L1D LOAD      ACCESS:    7150927  HIT:    6098415  MISS:    1052512
L1D RFO       ACCESS:    6189375  HIT:    5901781  MISS:     287594
L1D PREFETCH  ACCESS:    6609266  HIT:    5872484  MISS:     736782
L1D WRITEBACK ACCESS:          0  HIT:          0  MISS:          0
L1D PREFETCH  REQUESTED:    7204844  ISSUED:    7082622  USEFUL:     180894  USELESS:     555982
L1D AVERAGE MISS LATENCY: 20.346 cycles
L1D

SHEET
L1D-total_access : 19949568
L1D-total_hit : 17872680
L1D-total_miss : 2076888
L1D-load_access : 7150927
L1D-load_hit : 6098415
L1D-load_miss : 1052512
L1D-rfo_access : 6189375
L1D-rfo_hit : 5901781
L1D-rfo_miss : 287594
L1D-prefetch_access : 6609266
L1D-prefetch_hit : 5872484
L1D-prefetch_miss : 736782
L1D-writeback_access : 0
L1D-writeback_hit : 0
L1D-writeback_miss : 0
L1D-prefetch_requested : 7204844
L1D-prefetch_issued : 7082622
L1D-prefetch_useful : 180894
L1D-prefetch_useless : 555982
L1D-Avg_miss_latency : 20.346

L1I TOTAL     ACCESS:   14744234  HIT:    9442218  MISS:    5302016
L1I LOAD      ACCESS:    9624474  HIT:    8480969  MISS:    1143505
L1I RFO       ACCESS:          0  HIT:          0  MISS:          0
L1I PREFETCH  ACCESS:    5119760  HIT:     961249  MISS:    4158511
L1I WRITEBACK ACCESS:          0  HIT:          0  MISS:          0
L1I PREFETCH  REQUESTED:    5674821  ISSUED:    5674774  USEFUL:    2429431  USELESS:    1729098
L1I AVERAGE MISS LATENCY: 18.3915 cycles
L1I

SHEET
L1I-total_access : 14744234
L1I-total_hit : 9442218
L1I-total_miss : 5302016
L1I-load_access : 9624474
L1I-load_hit : 8480969
L1I-load_miss : 1143505
L1I-rfo_access : 0
L1I-rfo_hit : 0
L1I-rfo_miss : 0
L1I-prefetch_access : 5119760
L1I-prefetch_hit : 961249
L1I-prefetch_miss : 4158511
L1I-writeback_access : 0
L1I-writeback_hit : 0
L1I-writeback_miss : 0
L1I-prefetch_requested : 5674821
L1I-prefetch_issued : 5674774
L1I-prefetch_useful : 2429431
L1I-prefetch_useless : 1729098
L1I-Avg_miss_latency : 18.3915

L2C TOTAL     ACCESS:   10292373  HIT:    9161353  MISS:    1131020
L2C LOAD      ACCESS:    1862080  HIT:    1551849  MISS:     310231
L2C RFO       ACCESS:     284386  HIT:     221053  MISS:      63333
L2C PREFETCH  ACCESS:    7530445  HIT:    6776483  MISS:     753962
L2C WRITEBACK ACCESS:     615462  HIT:     611968  MISS:       3494
L2C PREFETCH  REQUESTED:   10311451  ISSUED:   10297511  USEFUL:      58362  USELESS:     695282
L2C AVERAGE MISS LATENCY: 34.9462 cycles
L2C

SHEET
L2C-total_access : 10292373
L2C-total_hit : 9161353
L2C-total_miss : 1131020
L2C-load_access : 1862080
L2C-load_hit : 1551849
L2C-load_miss : 310231
L2C-rfo_access : 284386
L2C-rfo_hit : 221053
L2C-rfo_miss : 63333
L2C-prefetch_access : 7530445
L2C-prefetch_hit : 6776483
L2C-prefetch_miss : 753962
L2C-writeback_access : 615462
L2C-writeback_hit : 611968
L2C-writeback_miss : 3494
L2C-prefetch_requested : 10311451
L2C-prefetch_issued : 10297511
L2C-prefetch_useful : 58362
L2C-prefetch_useless : 695282
L2C-Avg_miss_latency : 34.9462

LLC TOTAL     ACCESS:    3158734  HIT:    3133328  MISS:      25406
LLC LOAD      ACCESS:     310059  HIT:     306820  MISS:       3239
LLC RFO       ACCESS:      63299  HIT:      61533  MISS:       1766
LLC PREFETCH  ACCESS:    2646706  HIT:    2626381  MISS:      20325
LLC WRITEBACK ACCESS:     138670  HIT:     138594  MISS:         76
LLC PREFETCH  REQUESTED:          0  ISSUED:          0  USEFUL:        965  USELESS:      17868
LLC AVERAGE MISS LATENCY: 149.791 cycles
LLC

SHEET
LLC-total_access : 3158734
LLC-total_hit : 3133328
LLC-total_miss : 25406
LLC-load_access : 310059
LLC-load_hit : 306820
LLC-load_miss : 3239
LLC-rfo_access : 63299
LLC-rfo_hit : 61533
LLC-rfo_miss : 1766
LLC-prefetch_access : 2646706
LLC-prefetch_hit : 2626381
LLC-prefetch_miss : 20325
LLC-writeback_access : 138670
LLC-writeback_hit : 138594
LLC-writeback_miss : 76
LLC-prefetch_requested : 0
LLC-prefetch_issued : 0
LLC-prefetch_useful : 965
LLC-prefetch_useless : 17868
LLC-Avg_miss_latency : 149.791

Major fault: 0 Minor fault: 2046
I-Shadow cache 408 bytes
Touched + WorthPF tables 3072 bytes 
MMA filter 174 bytes 
FNL filter 272 bytes 
TOTAL PREFETCHER STORAGE SIZE: 13014 bytes
CPU 0 L1I next line prefetcher final stats

 morteza stats start 

SHEET
fnlfilter_access_cntr : 33144268
iShadow_access_cntr : 43210726
missahead_access_cntr : 4734120
mmafilter_access_cntr : 10180452
touched_access_cntr : 21005955
worthpf_access_cntr : 33905857


morteza stats endCPU 0 L1D next line prefetcher final stats

DRAM Statistics
 CHANNEL 0
 RQ ROW_BUFFER_HIT:       7551  ROW_BUFFER_MISS:      17779
 DBUS_CONGESTED:       8283
 WQ ROW_BUFFER_HIT:        235  ROW_BUFFER_MISS:       2770  FULL:          0

 AVG_CONGESTED_CYCLE: 5

CPU 0 Branch Prediction Accuracy: 99.8445% MPKI: 0.29148 Average ROB Occupancy at Mispredict: 127.338

Branch types
NOT_BRANCH: 40627992 81.256%
BRANCH_DIRECT_JUMP: 490941 0.981882%
BRANCH_INDIRECT: 175853 0.351706%
BRANCH_CONDITIONAL: 6321406 12.6428%
BRANCH_DIRECT_CALL: 1002069 2.00414%
BRANCH_INDIRECT_CALL: 189783 0.379566%
BRANCH_RETURN: 1191850 2.3837%
BRANCH_OTHER: 0 0%

