Initialize SIGNATURE TABLE
ST_SET: 1
ST_WAY: 256
ST_TAG_BIT: 16
ST_TAG_MASK: ffff

Initialize PATTERN TABLE
PT_SET: 512
PT_WAY: 4
SIG_DELTA_BIT: 7
C_SIG_BIT: 4
C_DELTA_BIT: 4

Initialize PREFETCH FILTER
FILTER_SET: 1024

*** ChampSim Multicore Out-of-Order Simulator ***

Warmup Instructions: 50000000
Simulation Instructions: 50000000
Number of CPUs: 1
LLC sets: 2048
LLC ways: 16
Off-chip DRAM Size: 4096 MB Channels: 1 Width: 64-bit Data Rate: 3200 MT/s

CPU 0 runs /home/mbaradaran/ChampSim/dpc3_traces/server_019.champsimtrace.xz
CPU 0 L1I next line prefetcher
CPU 0 L1D next line prefetcher
Heartbeat CPU 0 instructions: 10000002 cycles: 3629062 heartbeat IPC: 2.75553 cumulative IPC: 2.75553 (Simulation time: 0 hr 1 min 38 sec) 
Heartbeat CPU 0 instructions: 20000003 cycles: 7260022 heartbeat IPC: 2.75409 cumulative IPC: 2.75481 (Simulation time: 0 hr 3 min 32 sec) 
Heartbeat CPU 0 instructions: 30000002 cycles: 10889397 heartbeat IPC: 2.7553 cumulative IPC: 2.75497 (Simulation time: 0 hr 5 min 32 sec) 
Heartbeat CPU 0 instructions: 40000002 cycles: 14530038 heartbeat IPC: 2.74677 cumulative IPC: 2.75292 (Simulation time: 0 hr 7 min 3 sec) 
Heartbeat CPU 0 instructions: 50000001 cycles: 18160041 heartbeat IPC: 2.75482 cumulative IPC: 2.7533 (Simulation time: 0 hr 8 min 59 sec) 

Warmup complete CPU 0 instructions: 50000001 cycles: 18160041 (Simulation time: 0 hr 8 min 59 sec) 

Heartbeat CPU 0 instructions: 60000000 cycles: 37668560 heartbeat IPC: 0.512597 cumulative IPC: 0.512597 (Simulation time: 0 hr 11 min 36 sec) 
Heartbeat CPU 0 instructions: 70000002 cycles: 60942775 heartbeat IPC: 0.42966 cumulative IPC: 0.467478 (Simulation time: 0 hr 14 min 6 sec) 
Heartbeat CPU 0 instructions: 80000001 cycles: 81174058 heartbeat IPC: 0.494284 cumulative IPC: 0.476085 (Simulation time: 0 hr 16 min 17 sec) 
Heartbeat CPU 0 instructions: 90000002 cycles: 98283401 heartbeat IPC: 0.584476 cumulative IPC: 0.49923 (Simulation time: 0 hr 18 min 38 sec) 
Heartbeat CPU 0 instructions: 100000002 cycles: 115321159 heartbeat IPC: 0.586932 cumulative IPC: 0.514609 (Simulation time: 0 hr 21 min 9 sec) 
Finished CPU 0 instructions: 50000001 cycles: 97161118 cumulative IPC: 0.514609 (Simulation time: 0 hr 21 min 9 sec) 

ChampSim completed all CPUs

Region of Interest Statistics

CPU 0 cumulative IPC: 0.514609 instructions: 50000001 cycles: 97161118

SHEET
IPC : 0.514609

L1D TOTAL     ACCESS:   18332140  HIT:   16108571  MISS:    2223569
L1D LOAD      ACCESS:    6997421  HIT:    6249904  MISS:     747517
L1D RFO       ACCESS:    5496264  HIT:    4594383  MISS:     901881
L1D PREFETCH  ACCESS:    5838455  HIT:    5264284  MISS:     574171
L1D WRITEBACK ACCESS:          0  HIT:          0  MISS:          0
L1D PREFETCH  REQUESTED:    7035390  ISSUED:    6849142  USEFUL:     205010  USELESS:     369069
L1D AVERAGE MISS LATENCY: 184.747 cycles
L1D

SHEET
L1D-total_access : 18332140
L1D-total_hit : 16108571
L1D-total_miss : 2223569
L1D-load_access : 6997421
L1D-load_hit : 6249904
L1D-load_miss : 747517
L1D-rfo_access : 5496264
L1D-rfo_hit : 4594383
L1D-rfo_miss : 901881
L1D-prefetch_access : 5838455
L1D-prefetch_hit : 5264284
L1D-prefetch_miss : 574171
L1D-writeback_access : 0
L1D-writeback_hit : 0
L1D-writeback_miss : 0
L1D-prefetch_requested : 7035390
L1D-prefetch_issued : 6849142
L1D-prefetch_useful : 205010
L1D-prefetch_useless : 369069
L1D-Avg_miss_latency : 184.747

L1I TOTAL     ACCESS:   14706106  HIT:   10623445  MISS:    4082661
L1I LOAD      ACCESS:    9850235  HIT:    9669540  MISS:     180695
L1I RFO       ACCESS:          0  HIT:          0  MISS:          0
L1I PREFETCH  ACCESS:    4855871  HIT:     953905  MISS:    3901966
L1I WRITEBACK ACCESS:          0  HIT:          0  MISS:          0
L1I PREFETCH  REQUESTED:    5071105  ISSUED:    5071071  USEFUL:    2783109  USELESS:    1118869
L1I AVERAGE MISS LATENCY: 17.6174 cycles
L1I

SHEET
L1I-total_access : 14706106
L1I-total_hit : 10623445
L1I-total_miss : 4082661
L1I-load_access : 9850235
L1I-load_hit : 9669540
L1I-load_miss : 180695
L1I-rfo_access : 0
L1I-rfo_hit : 0
L1I-rfo_miss : 0
L1I-prefetch_access : 4855871
L1I-prefetch_hit : 953905
L1I-prefetch_miss : 3901966
L1I-writeback_access : 0
L1I-writeback_hit : 0
L1I-writeback_miss : 0
L1I-prefetch_requested : 5071105
L1I-prefetch_issued : 5071071
L1I-prefetch_useful : 2783109
L1I-prefetch_useless : 1118869
L1I-Avg_miss_latency : 17.6174

L2C TOTAL     ACCESS:    9066358  HIT:    7174429  MISS:    1891929
L2C LOAD      ACCESS:     714264  HIT:     374445  MISS:     339819
L2C RFO       ACCESS:     901539  HIT:      18517  MISS:     883022
L2C PREFETCH  ACCESS:    6275919  HIT:    5609348  MISS:     666571
L2C WRITEBACK ACCESS:    1174636  HIT:    1172119  MISS:       2517
L2C PREFETCH  REQUESTED:    7279131  ISSUED:    7266028  USEFUL:      29650  USELESS:     635553
L2C AVERAGE MISS LATENCY: 219.036 cycles
L2C

SHEET
L2C-total_access : 9066358
L2C-total_hit : 7174429
L2C-total_miss : 1891929
L2C-load_access : 714264
L2C-load_hit : 374445
L2C-load_miss : 339819
L2C-rfo_access : 901539
L2C-rfo_hit : 18517
L2C-rfo_miss : 883022
L2C-prefetch_access : 6275919
L2C-prefetch_hit : 5609348
L2C-prefetch_miss : 666571
L2C-writeback_access : 1174636
L2C-writeback_hit : 1172119
L2C-writeback_miss : 2517
L2C-prefetch_requested : 7279131
L2C-prefetch_issued : 7266028
L2C-prefetch_useful : 29650
L2C-prefetch_useless : 635553
L2C-Avg_miss_latency : 219.036

LLC TOTAL     ACCESS:    4573061  HIT:    2955344  MISS:    1617717
LLC LOAD      ACCESS:     339530  HIT:     171354  MISS:     168176
LLC RFO       ACCESS:     883016  HIT:     115494  MISS:     767522
LLC PREFETCH  ACCESS:    2239150  HIT:    1559267  MISS:     679883
LLC WRITEBACK ACCESS:    1111365  HIT:    1109229  MISS:       2136
LLC PREFETCH  REQUESTED:          0  ISSUED:          0  USEFUL:      53856  USELESS:     624786
LLC AVERAGE MISS LATENCY: 275.235 cycles
LLC

SHEET
LLC-total_access : 4573061
LLC-total_hit : 2955344
LLC-total_miss : 1617717
LLC-load_access : 339530
LLC-load_hit : 171354
LLC-load_miss : 168176
LLC-rfo_access : 883016
LLC-rfo_hit : 115494
LLC-rfo_miss : 767522
LLC-prefetch_access : 2239150
LLC-prefetch_hit : 1559267
LLC-prefetch_miss : 679883
LLC-writeback_access : 1111365
LLC-writeback_hit : 1109229
LLC-writeback_miss : 2136
LLC-prefetch_requested : 0
LLC-prefetch_issued : 0
LLC-prefetch_useful : 53856
LLC-prefetch_useless : 624786
LLC-Avg_miss_latency : 275.235

Major fault: 0 Minor fault: 25695
I-Shadow cache 408 bytes
Touched + WorthPF tables 3072 bytes 
MMA filter 174 bytes 
FNL filter 272 bytes 
TOTAL PREFETCHER STORAGE SIZE: 13014 bytes
CPU 0 L1I next line prefetcher final stats

 morteza stats start 

SHEET
fnlfilter_access_cntr : 29316382
iShadow_access_cntr : 42946618
missahead_access_cntr : 6430929
mmafilter_access_cntr : 13286285
touched_access_cntr : 18766170
worthpf_access_cntr : 26819051


morteza stats endCPU 0 L1D next line prefetcher final stats

DRAM Statistics
 CHANNEL 0
 RQ ROW_BUFFER_HIT:     413199  ROW_BUFFER_MISS:    1202148
 DBUS_CONGESTED:    1604431
 WQ ROW_BUFFER_HIT:     251126  ROW_BUFFER_MISS:     686464  FULL:          0

 AVG_CONGESTED_CYCLE: 6

CPU 0 Branch Prediction Accuracy: 99.2186% MPKI: 1.32192 Average ROB Occupancy at Mispredict: 177.026

Branch types
NOT_BRANCH: 41540960 83.0819%
BRANCH_DIRECT_JUMP: 462384 0.924768%
BRANCH_INDIRECT: 45460 0.09092%
BRANCH_CONDITIONAL: 6209292 12.4186%
BRANCH_DIRECT_CALL: 666241 1.33248%
BRANCH_INDIRECT_CALL: 204728 0.409456%
BRANCH_RETURN: 870978 1.74196%
BRANCH_OTHER: 0 0%

