Initialize SIGNATURE TABLE
ST_SET: 1
ST_WAY: 256
ST_TAG_BIT: 16
ST_TAG_MASK: ffff

Initialize PATTERN TABLE
PT_SET: 512
PT_WAY: 4
SIG_DELTA_BIT: 7
C_SIG_BIT: 4
C_DELTA_BIT: 4

Initialize PREFETCH FILTER
FILTER_SET: 1024

*** ChampSim Multicore Out-of-Order Simulator ***

Warmup Instructions: 50000000
Simulation Instructions: 50000000
Number of CPUs: 1
LLC sets: 2048
LLC ways: 16
Off-chip DRAM Size: 4096 MB Channels: 1 Width: 64-bit Data Rate: 3200 MT/s

CPU 0 runs /home/mbaradaran/ChampSim/dpc3_traces/server_039.champsimtrace.xz
CPU 0 L1I next line prefetcher
CPU 0 L1D next line prefetcher
Heartbeat CPU 0 instructions: 10000003 cycles: 3451676 heartbeat IPC: 2.89714 cumulative IPC: 2.89714 (Simulation time: 0 hr 1 min 42 sec) 
Heartbeat CPU 0 instructions: 20000002 cycles: 6896327 heartbeat IPC: 2.90305 cumulative IPC: 2.90009 (Simulation time: 0 hr 3 min 19 sec) 
Heartbeat CPU 0 instructions: 30000001 cycles: 10342802 heartbeat IPC: 2.90152 cumulative IPC: 2.90057 (Simulation time: 0 hr 4 min 46 sec) 
Heartbeat CPU 0 instructions: 40000002 cycles: 13784618 heartbeat IPC: 2.90544 cumulative IPC: 2.90179 (Simulation time: 0 hr 6 min 13 sec) 
Heartbeat CPU 0 instructions: 50000001 cycles: 17225786 heartbeat IPC: 2.90599 cumulative IPC: 2.90263 (Simulation time: 0 hr 7 min 35 sec) 

Warmup complete CPU 0 instructions: 50000001 cycles: 17225786 (Simulation time: 0 hr 7 min 35 sec) 

Heartbeat CPU 0 instructions: 60000000 cycles: 23097575 heartbeat IPC: 1.70306 cumulative IPC: 1.70306 (Simulation time: 0 hr 8 min 48 sec) 
Heartbeat CPU 0 instructions: 70000000 cycles: 28959583 heartbeat IPC: 1.7059 cumulative IPC: 1.70448 (Simulation time: 0 hr 10 min 3 sec) 
Heartbeat CPU 0 instructions: 80000000 cycles: 34839914 heartbeat IPC: 1.70058 cumulative IPC: 1.70318 (Simulation time: 0 hr 11 min 21 sec) 
Heartbeat CPU 0 instructions: 90000001 cycles: 40699713 heartbeat IPC: 1.70654 cumulative IPC: 1.70402 (Simulation time: 0 hr 12 min 37 sec) 
Heartbeat CPU 0 instructions: 100000002 cycles: 46565849 heartbeat IPC: 1.7047 cumulative IPC: 1.70415 (Simulation time: 0 hr 13 min 44 sec) 
Finished CPU 0 instructions: 50000001 cycles: 29340063 cumulative IPC: 1.70415 (Simulation time: 0 hr 13 min 44 sec) 

ChampSim completed all CPUs

Region of Interest Statistics

CPU 0 cumulative IPC: 1.70415 instructions: 50000001 cycles: 29340063

SHEET
IPC : 1.70415

L1D TOTAL     ACCESS:   20046795  HIT:   19552529  MISS:     494266
L1D LOAD      ACCESS:    6566249  HIT:    6344714  MISS:     221535
L1D RFO       ACCESS:    7094445  HIT:    7027607  MISS:      66838
L1D PREFETCH  ACCESS:    6386101  HIT:    6180208  MISS:     205893
L1D WRITEBACK ACCESS:          0  HIT:          0  MISS:          0
L1D PREFETCH  REQUESTED:    6582017  ISSUED:    6460430  USEFUL:      50082  USELESS:     155815
L1D AVERAGE MISS LATENCY: 15.1622 cycles
L1D

SHEET
L1D-total_access : 20046795
L1D-total_hit : 19552529
L1D-total_miss : 494266
L1D-load_access : 6566249
L1D-load_hit : 6344714
L1D-load_miss : 221535
L1D-rfo_access : 7094445
L1D-rfo_hit : 7027607
L1D-rfo_miss : 66838
L1D-prefetch_access : 6386101
L1D-prefetch_hit : 6180208
L1D-prefetch_miss : 205893
L1D-writeback_access : 0
L1D-writeback_hit : 0
L1D-writeback_miss : 0
L1D-prefetch_requested : 6582017
L1D-prefetch_issued : 6460430
L1D-prefetch_useful : 50082
L1D-prefetch_useless : 155815
L1D-Avg_miss_latency : 15.1622

L1I TOTAL     ACCESS:   16748067  HIT:   10553712  MISS:    6194355
L1I LOAD      ACCESS:    9310492  HIT:    9097552  MISS:     212940
L1I RFO       ACCESS:          0  HIT:          0  MISS:          0
L1I PREFETCH  ACCESS:    7437575  HIT:    1456160  MISS:    5981415
L1I WRITEBACK ACCESS:          0  HIT:          0  MISS:          0
L1I PREFETCH  REQUESTED:    7702656  ISSUED:    7702639  USEFUL:    4477739  USELESS:    1503692
L1I AVERAGE MISS LATENCY: 14.7365 cycles
L1I

SHEET
L1I-total_access : 16748067
L1I-total_hit : 10553712
L1I-total_miss : 6194355
L1I-load_access : 9310492
L1I-load_hit : 9097552
L1I-load_miss : 212940
L1I-rfo_access : 0
L1I-rfo_hit : 0
L1I-rfo_miss : 0
L1I-prefetch_access : 7437575
L1I-prefetch_hit : 1456160
L1I-prefetch_miss : 5981415
L1I-writeback_access : 0
L1I-writeback_hit : 0
L1I-writeback_miss : 0
L1I-prefetch_requested : 7702656
L1I-prefetch_issued : 7702639
L1I-prefetch_useful : 4477739
L1I-prefetch_useless : 1503692
L1I-Avg_miss_latency : 14.7365

L2C TOTAL     ACCESS:    9163552  HIT:    9163484  MISS:         68
L2C LOAD      ACCESS:     398408  HIT:     398405  MISS:          3
L2C RFO       ACCESS:      66753  HIT:      66753  MISS:          0
L2C PREFETCH  ACCESS:    8518477  HIT:    8518412  MISS:         65
L2C WRITEBACK ACCESS:     179914  HIT:     179914  MISS:          0
L2C PREFETCH  REQUESTED:    7897170  ISSUED:    7893492  USEFUL:          4  USELESS:          1
L2C AVERAGE MISS LATENCY: 37.1324 cycles
L2C

SHEET
L2C-total_access : 9163552
L2C-total_hit : 9163484
L2C-total_miss : 68
L2C-load_access : 398408
L2C-load_hit : 398405
L2C-load_miss : 3
L2C-rfo_access : 66753
L2C-rfo_hit : 66753
L2C-rfo_miss : 0
L2C-prefetch_access : 8518477
L2C-prefetch_hit : 8518412
L2C-prefetch_miss : 65
L2C-writeback_access : 179914
L2C-writeback_hit : 179914
L2C-writeback_miss : 0
L2C-prefetch_requested : 7897170
L2C-prefetch_issued : 7893492
L2C-prefetch_useful : 4
L2C-prefetch_useless : 1
L2C-Avg_miss_latency : 37.1324

LLC TOTAL     ACCESS:    1205375  HIT:    1204996  MISS:        379
LLC LOAD      ACCESS:          3  HIT:          3  MISS:          0
LLC RFO       ACCESS:          0  HIT:          0  MISS:          0
LLC PREFETCH  ACCESS:    1205371  HIT:    1204992  MISS:        379
LLC WRITEBACK ACCESS:          1  HIT:          1  MISS:          0
LLC PREFETCH  REQUESTED:          0  ISSUED:          0  USEFUL:          3  USELESS:          0
LLC AVERAGE MISS LATENCY: 172.86 cycles
LLC

SHEET
LLC-total_access : 1205375
LLC-total_hit : 1204996
LLC-total_miss : 379
LLC-load_access : 3
LLC-load_hit : 3
LLC-load_miss : 0
LLC-rfo_access : 0
LLC-rfo_hit : 0
LLC-rfo_miss : 0
LLC-prefetch_access : 1205371
LLC-prefetch_hit : 1204992
LLC-prefetch_miss : 379
LLC-writeback_access : 1
LLC-writeback_hit : 1
LLC-writeback_miss : 0
LLC-prefetch_requested : 0
LLC-prefetch_issued : 0
LLC-prefetch_useful : 3
LLC-prefetch_useless : 0
LLC-Avg_miss_latency : 172.86

Major fault: 0 Minor fault: 356
I-Shadow cache 408 bytes
Touched + WorthPF tables 3072 bytes 
MMA filter 174 bytes 
FNL filter 272 bytes 
TOTAL PREFETCHER STORAGE SIZE: 13014 bytes
CPU 0 L1I next line prefetcher final stats

 morteza stats start 

SHEET
fnlfilter_access_cntr : 42081954
iShadow_access_cntr : 41841296
missahead_access_cntr : 9966239
mmafilter_access_cntr : 19895894
touched_access_cntr : 27986841
worthpf_access_cntr : 38686267


morteza stats endCPU 0 L1D next line prefetcher final stats

DRAM Statistics
 CHANNEL 0
 RQ ROW_BUFFER_HIT:         58  ROW_BUFFER_MISS:        321
 DBUS_CONGESTED:         62
 WQ ROW_BUFFER_HIT:          0  ROW_BUFFER_MISS:          0  FULL:          0

 AVG_CONGESTED_CYCLE: 5

CPU 0 Branch Prediction Accuracy: 99.9091% MPKI: 0.1547 Average ROB Occupancy at Mispredict: 250.598

Branch types
NOT_BRANCH: 41495015 82.99%
BRANCH_DIRECT_JUMP: 491309 0.982618%
BRANCH_INDIRECT: 0 0%
BRANCH_CONDITIONAL: 5595262 11.1905%
BRANCH_DIRECT_CALL: 1028408 2.05682%
BRANCH_INDIRECT_CALL: 180756 0.361512%
BRANCH_RETURN: 1209169 2.41834%
BRANCH_OTHER: 0 0%

