Initialize SIGNATURE TABLE
ST_SET: 1
ST_WAY: 256
ST_TAG_BIT: 16
ST_TAG_MASK: ffff

Initialize PATTERN TABLE
PT_SET: 512
PT_WAY: 4
SIG_DELTA_BIT: 7
C_SIG_BIT: 4
C_DELTA_BIT: 4

Initialize PREFETCH FILTER
FILTER_SET: 1024

*** ChampSim Multicore Out-of-Order Simulator ***

Warmup Instructions: 50000000
Simulation Instructions: 50000000
Number of CPUs: 1
LLC sets: 2048
LLC ways: 16
Off-chip DRAM Size: 4096 MB Channels: 1 Width: 64-bit Data Rate: 3200 MT/s

CPU 0 runs /home/mbaradaran/ChampSim/dpc3_traces/server_024.champsimtrace.xz
CPU 0 L1I next line prefetcher
CPU 0 L1D next line prefetcher
Heartbeat CPU 0 instructions: 10000000 cycles: 3508779 heartbeat IPC: 2.84999 cumulative IPC: 2.84999 (Simulation time: 0 hr 1 min 35 sec) 
Heartbeat CPU 0 instructions: 20000002 cycles: 7009630 heartbeat IPC: 2.85645 cumulative IPC: 2.85322 (Simulation time: 0 hr 3 min 12 sec) 
Heartbeat CPU 0 instructions: 30000000 cycles: 10520950 heartbeat IPC: 2.84793 cumulative IPC: 2.85145 (Simulation time: 0 hr 4 min 52 sec) 
Heartbeat CPU 0 instructions: 40000000 cycles: 14028700 heartbeat IPC: 2.85083 cumulative IPC: 2.8513 (Simulation time: 0 hr 6 min 31 sec) 
Heartbeat CPU 0 instructions: 50000001 cycles: 17526096 heartbeat IPC: 2.85927 cumulative IPC: 2.85289 (Simulation time: 0 hr 8 min 16 sec) 

Warmup complete CPU 0 instructions: 50000001 cycles: 17526096 (Simulation time: 0 hr 8 min 16 sec) 

Heartbeat CPU 0 instructions: 60000003 cycles: 25561464 heartbeat IPC: 1.2445 cumulative IPC: 1.2445 (Simulation time: 0 hr 9 min 56 sec) 
Heartbeat CPU 0 instructions: 70000000 cycles: 33655054 heartbeat IPC: 1.23555 cumulative IPC: 1.24001 (Simulation time: 0 hr 11 min 18 sec) 
*** Reached end of trace for Core: 0 Repeating trace: /home/mbaradaran/ChampSim/dpc3_traces/server_024.champsimtrace.xz
Heartbeat CPU 0 instructions: 80000003 cycles: 41697618 heartbeat IPC: 1.24338 cumulative IPC: 1.24113 (Simulation time: 0 hr 12 min 42 sec) 
Heartbeat CPU 0 instructions: 90000000 cycles: 49828495 heartbeat IPC: 1.22988 cumulative IPC: 1.2383 (Simulation time: 0 hr 14 min 20 sec) 
Heartbeat CPU 0 instructions: 100000000 cycles: 57973526 heartbeat IPC: 1.22774 cumulative IPC: 1.23617 (Simulation time: 0 hr 15 min 46 sec) 
Finished CPU 0 instructions: 50000000 cycles: 40447438 cumulative IPC: 1.23617 (Simulation time: 0 hr 15 min 46 sec) 

ChampSim completed all CPUs

Region of Interest Statistics

CPU 0 cumulative IPC: 1.23617 instructions: 50000000 cycles: 40447438

SHEET
IPC : 1.23617

L1D TOTAL     ACCESS:   20705111  HIT:   19186825  MISS:    1518286
L1D LOAD      ACCESS:    7431938  HIT:    6753829  MISS:     678109
L1D RFO       ACCESS:    6169784  HIT:    5895050  MISS:     274734
L1D PREFETCH  ACCESS:    7103389  HIT:    6537946  MISS:     565443
L1D WRITEBACK ACCESS:          0  HIT:          0  MISS:          0
L1D PREFETCH  REQUESTED:    7490416  ISSUED:    7374551  USEFUL:     137930  USELESS:     427519
L1D AVERAGE MISS LATENCY: 27.6056 cycles
L1D

SHEET
L1D-total_access : 20705111
L1D-total_hit : 19186825
L1D-total_miss : 1518286
L1D-load_access : 7431938
L1D-load_hit : 6753829
L1D-load_miss : 678109
L1D-rfo_access : 6169784
L1D-rfo_hit : 5895050
L1D-rfo_miss : 274734
L1D-prefetch_access : 7103389
L1D-prefetch_hit : 6537946
L1D-prefetch_miss : 565443
L1D-writeback_access : 0
L1D-writeback_hit : 0
L1D-writeback_miss : 0
L1D-prefetch_requested : 7490416
L1D-prefetch_issued : 7374551
L1D-prefetch_useful : 137930
L1D-prefetch_useless : 427519
L1D-Avg_miss_latency : 27.6056

L1I TOTAL     ACCESS:   13663092  HIT:    8841014  MISS:    4822078
L1I LOAD      ACCESS:    9191842  HIT:    7981941  MISS:    1209901
L1I RFO       ACCESS:          0  HIT:          0  MISS:          0
L1I PREFETCH  ACCESS:    4471250  HIT:     859073  MISS:    3612177
L1I WRITEBACK ACCESS:          0  HIT:          0  MISS:          0
L1I PREFETCH  REQUESTED:    5052500  ISSUED:    5052500  USEFUL:    1864613  USELESS:    1747546
L1I AVERAGE MISS LATENCY: 18.8777 cycles
L1I

SHEET
L1I-total_access : 13663092
L1I-total_hit : 8841014
L1I-total_miss : 4822078
L1I-load_access : 9191842
L1I-load_hit : 7981941
L1I-load_miss : 1209901
L1I-rfo_access : 0
L1I-rfo_hit : 0
L1I-rfo_miss : 0
L1I-prefetch_access : 4471250
L1I-prefetch_hit : 859073
L1I-prefetch_miss : 3612177
L1I-writeback_access : 0
L1I-writeback_hit : 0
L1I-writeback_miss : 0
L1I-prefetch_requested : 5052500
L1I-prefetch_issued : 5052500
L1I-prefetch_useful : 1864613
L1I-prefetch_useless : 1747546
L1I-Avg_miss_latency : 18.8777

L2C TOTAL     ACCESS:    8599559  HIT:    7388551  MISS:    1211008
L2C LOAD      ACCESS:    1641039  HIT:    1318984  MISS:     322055
L2C RFO       ACCESS:     272729  HIT:     163769  MISS:     108960
L2C PREFETCH  ACCESS:    6165544  HIT:    5393027  MISS:     772517
L2C WRITEBACK ACCESS:     520247  HIT:     512771  MISS:       7476
L2C PREFETCH  REQUESTED:    8239203  ISSUED:    8234295  USEFUL:      75588  USELESS:     696721
L2C AVERAGE MISS LATENCY: 40.0979 cycles
L2C

SHEET
L2C-total_access : 8599559
L2C-total_hit : 7388551
L2C-total_miss : 1211008
L2C-load_access : 1641039
L2C-load_hit : 1318984
L2C-load_miss : 322055
L2C-rfo_access : 272729
L2C-rfo_hit : 163769
L2C-rfo_miss : 108960
L2C-prefetch_access : 6165544
L2C-prefetch_hit : 5393027
L2C-prefetch_miss : 772517
L2C-writeback_access : 520247
L2C-writeback_hit : 512771
L2C-writeback_miss : 7476
L2C-prefetch_requested : 8239203
L2C-prefetch_issued : 8234295
L2C-prefetch_useful : 75588
L2C-prefetch_useless : 696721
L2C-Avg_miss_latency : 40.0979

LLC TOTAL     ACCESS:    2876308  HIT:    2822504  MISS:      53804
LLC LOAD      ACCESS:     321685  HIT:     315459  MISS:       6226
LLC RFO       ACCESS:     108829  HIT:      86792  MISS:      22037
LLC PREFETCH  ACCESS:    2259286  HIT:    2233916  MISS:      25370
LLC WRITEBACK ACCESS:     186508  HIT:     186337  MISS:        171
LLC PREFETCH  REQUESTED:          0  ISSUED:          0  USEFUL:       2334  USELESS:      23034
LLC AVERAGE MISS LATENCY: 196.917 cycles
LLC

SHEET
LLC-total_access : 2876308
LLC-total_hit : 2822504
LLC-total_miss : 53804
LLC-load_access : 321685
LLC-load_hit : 315459
LLC-load_miss : 6226
LLC-rfo_access : 108829
LLC-rfo_hit : 86792
LLC-rfo_miss : 22037
LLC-prefetch_access : 2259286
LLC-prefetch_hit : 2233916
LLC-prefetch_miss : 25370
LLC-writeback_access : 186508
LLC-writeback_hit : 186337
LLC-writeback_miss : 171
LLC-prefetch_requested : 0
LLC-prefetch_issued : 0
LLC-prefetch_useful : 2334
LLC-prefetch_useless : 23034
LLC-Avg_miss_latency : 196.917

Major fault: 0 Minor fault: 2370
I-Shadow cache 408 bytes
Touched + WorthPF tables 3072 bytes 
MMA filter 174 bytes 
FNL filter 272 bytes 
TOTAL PREFETCHER STORAGE SIZE: 13014 bytes
CPU 0 L1I next line prefetcher final stats

 morteza stats start 

SHEET
fnlfilter_access_cntr : 29775518
iShadow_access_cntr : 41741908
missahead_access_cntr : 3744798
mmafilter_access_cntr : 7893977
touched_access_cntr : 17972706
worthpf_access_cntr : 30794434


morteza stats endCPU 0 L1D next line prefetcher final stats

DRAM Statistics
 CHANNEL 0
 RQ ROW_BUFFER_HIT:      18201  ROW_BUFFER_MISS:      35418
 DBUS_CONGESTED:      39802
 WQ ROW_BUFFER_HIT:       2667  ROW_BUFFER_MISS:      23033  FULL:          0

 AVG_CONGESTED_CYCLE: 6

CPU 0 Branch Prediction Accuracy: 99.7477% MPKI: 0.46156 Average ROB Occupancy at Mispredict: 123.462

Branch types
NOT_BRANCH: 40853545 81.7071%
BRANCH_DIRECT_JUMP: 566811 1.13362%
BRANCH_INDIRECT: 197171 0.394342%
BRANCH_CONDITIONAL: 6308391 12.6168%
BRANCH_DIRECT_CALL: 876399 1.7528%
BRANCH_INDIRECT_CALL: 160491 0.320982%
BRANCH_RETURN: 1036885 2.07377%
BRANCH_OTHER: 0 0%

