Initialize SIGNATURE TABLE
ST_SET: 1
ST_WAY: 256
ST_TAG_BIT: 16
ST_TAG_MASK: ffff

Initialize PATTERN TABLE
PT_SET: 512
PT_WAY: 4
SIG_DELTA_BIT: 7
C_SIG_BIT: 4
C_DELTA_BIT: 4

Initialize PREFETCH FILTER
FILTER_SET: 1024

*** ChampSim Multicore Out-of-Order Simulator ***

Warmup Instructions: 50000000
Simulation Instructions: 50000000
Number of CPUs: 1
LLC sets: 2048
LLC ways: 16
Off-chip DRAM Size: 4096 MB Channels: 1 Width: 64-bit Data Rate: 3200 MT/s

CPU 0 runs /home/mbaradaran/ChampSim/dpc3_traces/server_026.champsimtrace.xz
CPU 0 L1I next line prefetcher
CPU 0 L1D next line prefetcher
Heartbeat CPU 0 instructions: 10000000 cycles: 3534955 heartbeat IPC: 2.82889 cumulative IPC: 2.82889 (Simulation time: 0 hr 1 min 36 sec) 
Heartbeat CPU 0 instructions: 20000002 cycles: 7075861 heartbeat IPC: 2.82414 cumulative IPC: 2.82651 (Simulation time: 0 hr 3 min 18 sec) 
Heartbeat CPU 0 instructions: 30000000 cycles: 10606570 heartbeat IPC: 2.83229 cumulative IPC: 2.82844 (Simulation time: 0 hr 5 min 7 sec) 
Heartbeat CPU 0 instructions: 40000003 cycles: 14146179 heartbeat IPC: 2.82517 cumulative IPC: 2.82762 (Simulation time: 0 hr 6 min 53 sec) 
Heartbeat CPU 0 instructions: 50000000 cycles: 17679092 heartbeat IPC: 2.83052 cumulative IPC: 2.8282 (Simulation time: 0 hr 8 min 36 sec) 

Warmup complete CPU 0 instructions: 50000004 cycles: 17679093 (Simulation time: 0 hr 8 min 36 sec) 

*** Reached end of trace for Core: 0 Repeating trace: /home/mbaradaran/ChampSim/dpc3_traces/server_026.champsimtrace.xz
Heartbeat CPU 0 instructions: 60000000 cycles: 26002568 heartbeat IPC: 1.20142 cumulative IPC: 1.20142 (Simulation time: 0 hr 10 min 8 sec) 
Heartbeat CPU 0 instructions: 70000003 cycles: 34187469 heartbeat IPC: 1.22176 cumulative IPC: 1.21151 (Simulation time: 0 hr 11 min 49 sec) 
Heartbeat CPU 0 instructions: 80000003 cycles: 42479053 heartbeat IPC: 1.20604 cumulative IPC: 1.20968 (Simulation time: 0 hr 13 min 18 sec) 
Heartbeat CPU 0 instructions: 90000002 cycles: 50676060 heartbeat IPC: 1.21996 cumulative IPC: 1.21223 (Simulation time: 0 hr 14 min 57 sec) 
Heartbeat CPU 0 instructions: 100000000 cycles: 58956189 heartbeat IPC: 1.20771 cumulative IPC: 1.21133 (Simulation time: 0 hr 16 min 34 sec) 
Finished CPU 0 instructions: 50000000 cycles: 41277097 cumulative IPC: 1.21133 (Simulation time: 0 hr 16 min 34 sec) 

ChampSim completed all CPUs

Region of Interest Statistics

CPU 0 cumulative IPC: 1.21133 instructions: 50000000 cycles: 41277097

SHEET
IPC : 1.21133

L1D TOTAL     ACCESS:   20790723  HIT:   19144972  MISS:    1645751
L1D LOAD      ACCESS:    7433316  HIT:    6705439  MISS:     727877
L1D RFO       ACCESS:    6260357  HIT:    5972995  MISS:     287362
L1D PREFETCH  ACCESS:    7097050  HIT:    6466538  MISS:     630512
L1D WRITEBACK ACCESS:          0  HIT:          0  MISS:          0
L1D PREFETCH  REQUESTED:    7485382  ISSUED:    7349417  USEFUL:     152722  USELESS:     477800
L1D AVERAGE MISS LATENCY: 26.859 cycles
L1D

SHEET
L1D-total_access : 20790723
L1D-total_hit : 19144972
L1D-total_miss : 1645751
L1D-load_access : 7433316
L1D-load_hit : 6705439
L1D-load_miss : 727877
L1D-rfo_access : 6260357
L1D-rfo_hit : 5972995
L1D-rfo_miss : 287362
L1D-prefetch_access : 7097050
L1D-prefetch_hit : 6466538
L1D-prefetch_miss : 630512
L1D-writeback_access : 0
L1D-writeback_hit : 0
L1D-writeback_miss : 0
L1D-prefetch_requested : 7485382
L1D-prefetch_issued : 7349417
L1D-prefetch_useful : 152722
L1D-prefetch_useless : 477800
L1D-Avg_miss_latency : 26.859

L1I TOTAL     ACCESS:   14361818  HIT:    9048202  MISS:    5313616
L1I LOAD      ACCESS:    9342095  HIT:    8090692  MISS:    1251403
L1I RFO       ACCESS:          0  HIT:          0  MISS:          0
L1I PREFETCH  ACCESS:    5019723  HIT:     957510  MISS:    4062213
L1I WRITEBACK ACCESS:          0  HIT:          0  MISS:          0
L1I PREFETCH  REQUESTED:    5615626  ISSUED:    5615626  USEFUL:    2112653  USELESS:    1949538
L1I AVERAGE MISS LATENCY: 19.651 cycles
L1I

SHEET
L1I-total_access : 14361818
L1I-total_hit : 9048202
L1I-total_miss : 5313616
L1I-load_access : 9342095
L1I-load_hit : 8090692
L1I-load_miss : 1251403
L1I-rfo_access : 0
L1I-rfo_hit : 0
L1I-rfo_miss : 0
L1I-prefetch_access : 5019723
L1I-prefetch_hit : 957510
L1I-prefetch_miss : 4062213
L1I-writeback_access : 0
L1I-writeback_hit : 0
L1I-writeback_miss : 0
L1I-prefetch_requested : 5615626
L1I-prefetch_issued : 5615626
L1I-prefetch_useful : 2112653
L1I-prefetch_useless : 1949538
L1I-Avg_miss_latency : 19.651

L2C TOTAL     ACCESS:    9388591  HIT:    7906371  MISS:    1482220
L2C LOAD      ACCESS:    1735956  HIT:    1342726  MISS:     393230
L2C RFO       ACCESS:     284739  HIT:     158965  MISS:     125774
L2C PREFETCH  ACCESS:    6806668  HIT:    5851214  MISS:     955454
L2C WRITEBACK ACCESS:     561228  HIT:     553466  MISS:       7762
L2C PREFETCH  REQUESTED:    9230762  ISSUED:    9224282  USEFUL:      88007  USELESS:     867116
L2C AVERAGE MISS LATENCY: 36.9437 cycles
L2C

SHEET
L2C-total_access : 9388591
L2C-total_hit : 7906371
L2C-total_miss : 1482220
L2C-load_access : 1735956
L2C-load_hit : 1342726
L2C-load_miss : 393230
L2C-rfo_access : 284739
L2C-rfo_hit : 158965
L2C-rfo_miss : 125774
L2C-prefetch_access : 6806668
L2C-prefetch_hit : 5851214
L2C-prefetch_miss : 955454
L2C-writeback_access : 561228
L2C-writeback_hit : 553466
L2C-writeback_miss : 7762
L2C-prefetch_requested : 9230762
L2C-prefetch_issued : 9224282
L2C-prefetch_useful : 88007
L2C-prefetch_useless : 867116
L2C-Avg_miss_latency : 36.9437

LLC TOTAL     ACCESS:    3397285  HIT:    3361432  MISS:      35853
LLC LOAD      ACCESS:     392955  HIT:     388926  MISS:       4029
LLC RFO       ACCESS:     125720  HIT:     111093  MISS:      14627
LLC PREFETCH  ACCESS:    2648938  HIT:    2631842  MISS:      17096
LLC WRITEBACK ACCESS:     229672  HIT:     229571  MISS:        101
LLC PREFETCH  REQUESTED:          0  ISSUED:          0  USEFUL:       1187  USELESS:      16673
LLC AVERAGE MISS LATENCY: 185.25 cycles
LLC

SHEET
LLC-total_access : 3397285
LLC-total_hit : 3361432
LLC-total_miss : 35853
LLC-load_access : 392955
LLC-load_hit : 388926
LLC-load_miss : 4029
LLC-rfo_access : 125720
LLC-rfo_hit : 111093
LLC-rfo_miss : 14627
LLC-prefetch_access : 2648938
LLC-prefetch_hit : 2631842
LLC-prefetch_miss : 17096
LLC-writeback_access : 229672
LLC-writeback_hit : 229571
LLC-writeback_miss : 101
LLC-prefetch_requested : 0
LLC-prefetch_issued : 0
LLC-prefetch_useful : 1187
LLC-prefetch_useless : 16673
LLC-Avg_miss_latency : 185.25

Major fault: 0 Minor fault: 2171
I-Shadow cache 408 bytes
Touched + WorthPF tables 3072 bytes 
MMA filter 174 bytes 
FNL filter 272 bytes 
TOTAL PREFETCHER STORAGE SIZE: 13014 bytes
CPU 0 L1I next line prefetcher final stats

 morteza stats start 

SHEET
fnlfilter_access_cntr : 32526296
iShadow_access_cntr : 42397392
missahead_access_cntr : 4145102
mmafilter_access_cntr : 8871505
touched_access_cntr : 19531044
worthpf_access_cntr : 33567581


morteza stats endCPU 0 L1D next line prefetcher final stats

DRAM Statistics
 CHANNEL 0
 RQ ROW_BUFFER_HIT:      12952  ROW_BUFFER_MISS:      22798
 DBUS_CONGESTED:      24876
 WQ ROW_BUFFER_HIT:       1559  ROW_BUFFER_MISS:      14056  FULL:          0

 AVG_CONGESTED_CYCLE: 6

CPU 0 Branch Prediction Accuracy: 99.822% MPKI: 0.32584 Average ROB Occupancy at Mispredict: 139.04

Branch types
NOT_BRANCH: 40848543 81.6971%
BRANCH_DIRECT_JUMP: 522045 1.04409%
BRANCH_INDIRECT: 204034 0.408068%
BRANCH_CONDITIONAL: 6212956 12.4259%
BRANCH_DIRECT_CALL: 932390 1.86478%
BRANCH_INDIRECT_CALL: 173764 0.347528%
BRANCH_RETURN: 1106150 2.2123%
BRANCH_OTHER: 0 0%

