Initialize SIGNATURE TABLE
ST_SET: 1
ST_WAY: 256
ST_TAG_BIT: 16
ST_TAG_MASK: ffff

Initialize PATTERN TABLE
PT_SET: 512
PT_WAY: 4
SIG_DELTA_BIT: 7
C_SIG_BIT: 4
C_DELTA_BIT: 4

Initialize PREFETCH FILTER
FILTER_SET: 1024

*** ChampSim Multicore Out-of-Order Simulator ***

Warmup Instructions: 50000000
Simulation Instructions: 50000000
Number of CPUs: 1
LLC sets: 2048
LLC ways: 16
Off-chip DRAM Size: 4096 MB Channels: 1 Width: 64-bit Data Rate: 3200 MT/s

CPU 0 runs /home/mbaradaran/ChampSim/dpc3_traces/server_025.champsimtrace.xz
CPU 0 L1I next line prefetcher
CPU 0 L1D next line prefetcher
Heartbeat CPU 0 instructions: 10000003 cycles: 3536396 heartbeat IPC: 2.82774 cumulative IPC: 2.82774 (Simulation time: 0 hr 1 min 50 sec) 
Heartbeat CPU 0 instructions: 20000000 cycles: 7079372 heartbeat IPC: 2.82249 cumulative IPC: 2.82511 (Simulation time: 0 hr 3 min 26 sec) 
Heartbeat CPU 0 instructions: 30000001 cycles: 10615006 heartbeat IPC: 2.82835 cumulative IPC: 2.82619 (Simulation time: 0 hr 5 min 10 sec) 
Heartbeat CPU 0 instructions: 40000003 cycles: 14156574 heartbeat IPC: 2.82361 cumulative IPC: 2.82554 (Simulation time: 0 hr 6 min 56 sec) 
Heartbeat CPU 0 instructions: 50000001 cycles: 17697802 heartbeat IPC: 2.82388 cumulative IPC: 2.82521 (Simulation time: 0 hr 8 min 47 sec) 

Warmup complete CPU 0 instructions: 50000001 cycles: 17697802 (Simulation time: 0 hr 8 min 47 sec) 

Heartbeat CPU 0 instructions: 60000002 cycles: 25885329 heartbeat IPC: 1.22137 cumulative IPC: 1.22137 (Simulation time: 0 hr 10 min 18 sec) 
Heartbeat CPU 0 instructions: 70000000 cycles: 34146586 heartbeat IPC: 1.21047 cumulative IPC: 1.2159 (Simulation time: 0 hr 12 min 3 sec) 
Heartbeat CPU 0 instructions: 80000002 cycles: 42300043 heartbeat IPC: 1.22647 cumulative IPC: 1.2194 (Simulation time: 0 hr 13 min 37 sec) 
Heartbeat CPU 0 instructions: 90000001 cycles: 49981410 heartbeat IPC: 1.30185 cumulative IPC: 1.23902 (Simulation time: 0 hr 15 min 9 sec) 
Heartbeat CPU 0 instructions: 100000000 cycles: 57196327 heartbeat IPC: 1.38602 cumulative IPC: 1.26587 (Simulation time: 0 hr 16 min 40 sec) 
Finished CPU 0 instructions: 50000003 cycles: 39498526 cumulative IPC: 1.26587 (Simulation time: 0 hr 16 min 40 sec) 

ChampSim completed all CPUs

Region of Interest Statistics

CPU 0 cumulative IPC: 1.26587 instructions: 50000003 cycles: 39498526

SHEET
IPC : 1.26587

L1D TOTAL     ACCESS:   20894584  HIT:   19468443  MISS:    1426141
L1D LOAD      ACCESS:    7404162  HIT:    6786560  MISS:     617602
L1D RFO       ACCESS:    6398802  HIT:    6149967  MISS:     248835
L1D PREFETCH  ACCESS:    7091620  HIT:    6531916  MISS:     559704
L1D WRITEBACK ACCESS:          0  HIT:          0  MISS:          0
L1D PREFETCH  REQUESTED:    7446828  ISSUED:    7276993  USEFUL:     132149  USELESS:     427549
L1D AVERAGE MISS LATENCY: 25.5998 cycles
L1D

SHEET
L1D-total_access : 20894584
L1D-total_hit : 19468443
L1D-total_miss : 1426141
L1D-load_access : 7404162
L1D-load_hit : 6786560
L1D-load_miss : 617602
L1D-rfo_access : 6398802
L1D-rfo_hit : 6149967
L1D-rfo_miss : 248835
L1D-prefetch_access : 7091620
L1D-prefetch_hit : 6531916
L1D-prefetch_miss : 559704
L1D-writeback_access : 0
L1D-writeback_hit : 0
L1D-writeback_miss : 0
L1D-prefetch_requested : 7446828
L1D-prefetch_issued : 7276993
L1D-prefetch_useful : 132149
L1D-prefetch_useless : 427549
L1D-Avg_miss_latency : 25.5998

L1I TOTAL     ACCESS:   13787217  HIT:    9087039  MISS:    4700178
L1I LOAD      ACCESS:    9360488  HIT:    8200298  MISS:    1160190
L1I RFO       ACCESS:          0  HIT:          0  MISS:          0
L1I PREFETCH  ACCESS:    4426729  HIT:     886741  MISS:    3539988
L1I WRITEBACK ACCESS:          0  HIT:          0  MISS:          0
L1I PREFETCH  REQUESTED:    4940927  ISSUED:    4940927  USEFUL:    1882047  USELESS:    1657926
L1I AVERAGE MISS LATENCY: 19.3093 cycles
L1I

SHEET
L1I-total_access : 13787217
L1I-total_hit : 9087039
L1I-total_miss : 4700178
L1I-load_access : 9360488
L1I-load_hit : 8200298
L1I-load_miss : 1160190
L1I-rfo_access : 0
L1I-rfo_hit : 0
L1I-rfo_miss : 0
L1I-prefetch_access : 4426729
L1I-prefetch_hit : 886741
L1I-prefetch_miss : 3539988
L1I-writeback_access : 0
L1I-writeback_hit : 0
L1I-writeback_miss : 0
L1I-prefetch_requested : 4940927
L1I-prefetch_issued : 4940927
L1I-prefetch_useful : 1882047
L1I-prefetch_useless : 1657926
L1I-Avg_miss_latency : 19.3093

L2C TOTAL     ACCESS:    8304582  HIT:    7114288  MISS:    1190294
L2C LOAD      ACCESS:    1580074  HIT:    1276012  MISS:     304062
L2C RFO       ACCESS:     246926  HIT:     146781  MISS:     100145
L2C PREFETCH  ACCESS:    5980786  HIT:    5203036  MISS:     777750
L2C WRITEBACK ACCESS:     496796  HIT:     488459  MISS:       8337
L2C PREFETCH  REQUESTED:    7746483  ISSUED:    7742337  USEFUL:      74654  USELESS:     702898
L2C AVERAGE MISS LATENCY: 36.9154 cycles
L2C

SHEET
L2C-total_access : 8304582
L2C-total_hit : 7114288
L2C-total_miss : 1190294
L2C-load_access : 1580074
L2C-load_hit : 1276012
L2C-load_miss : 304062
L2C-rfo_access : 246926
L2C-rfo_hit : 146781
L2C-rfo_miss : 100145
L2C-prefetch_access : 5980786
L2C-prefetch_hit : 5203036
L2C-prefetch_miss : 777750
L2C-writeback_access : 496796
L2C-writeback_hit : 488459
L2C-writeback_miss : 8337
L2C-prefetch_requested : 7746483
L2C-prefetch_issued : 7742337
L2C-prefetch_useful : 74654
L2C-prefetch_useless : 702898
L2C-Avg_miss_latency : 36.9154

LLC TOTAL     ACCESS:    2753177  HIT:    2721636  MISS:      31541
LLC LOAD      ACCESS:     303945  HIT:     300242  MISS:       3703
LLC RFO       ACCESS:     100107  HIT:      89342  MISS:      10765
LLC PREFETCH  ACCESS:    2165117  HIT:    2148184  MISS:      16933
LLC WRITEBACK ACCESS:     184008  HIT:     183868  MISS:        140
LLC PREFETCH  REQUESTED:          0  ISSUED:          0  USEFUL:       1247  USELESS:      14884
LLC AVERAGE MISS LATENCY: 177.729 cycles
LLC

SHEET
LLC-total_access : 2753177
LLC-total_hit : 2721636
LLC-total_miss : 31541
LLC-load_access : 303945
LLC-load_hit : 300242
LLC-load_miss : 3703
LLC-rfo_access : 100107
LLC-rfo_hit : 89342
LLC-rfo_miss : 10765
LLC-prefetch_access : 2165117
LLC-prefetch_hit : 2148184
LLC-prefetch_miss : 16933
LLC-writeback_access : 184008
LLC-writeback_hit : 183868
LLC-writeback_miss : 140
LLC-prefetch_requested : 0
LLC-prefetch_issued : 0
LLC-prefetch_useful : 1247
LLC-prefetch_useless : 14884
LLC-Avg_miss_latency : 177.729

Major fault: 0 Minor fault: 2465
I-Shadow cache 408 bytes
Touched + WorthPF tables 3072 bytes 
MMA filter 174 bytes 
FNL filter 272 bytes 
TOTAL PREFETCHER STORAGE SIZE: 13014 bytes
CPU 0 L1I next line prefetcher final stats

 morteza stats start 

SHEET
fnlfilter_access_cntr : 30924822
iShadow_access_cntr : 42431642
missahead_access_cntr : 4152913
mmafilter_access_cntr : 8534236
touched_access_cntr : 18941445
worthpf_access_cntr : 31954721


morteza stats endCPU 0 L1D next line prefetcher final stats

DRAM Statistics
 CHANNEL 0
 RQ ROW_BUFFER_HIT:       9946  ROW_BUFFER_MISS:      21452
 DBUS_CONGESTED:      20421
 WQ ROW_BUFFER_HIT:       1427  ROW_BUFFER_MISS:      12031  FULL:          0

 AVG_CONGESTED_CYCLE: 6

CPU 0 Branch Prediction Accuracy: 99.8142% MPKI: 0.34676 Average ROB Occupancy at Mispredict: 132.041

Branch types
NOT_BRANCH: 40668682 81.3374%
BRANCH_DIRECT_JUMP: 531697 1.06339%
BRANCH_INDIRECT: 199023 0.398046%
BRANCH_CONDITIONAL: 6211455 12.4229%
BRANCH_DIRECT_CALL: 1010905 2.02181%
BRANCH_INDIRECT_CALL: 183501 0.367002%
BRANCH_RETURN: 1194407 2.38881%
BRANCH_OTHER: 0 0%

