Initialize SIGNATURE TABLE
ST_SET: 1
ST_WAY: 256
ST_TAG_BIT: 16
ST_TAG_MASK: ffff

Initialize PATTERN TABLE
PT_SET: 512
PT_WAY: 4
SIG_DELTA_BIT: 7
C_SIG_BIT: 4
C_DELTA_BIT: 4

Initialize PREFETCH FILTER
FILTER_SET: 1024

*** ChampSim Multicore Out-of-Order Simulator ***

Warmup Instructions: 50000000
Simulation Instructions: 50000000
Number of CPUs: 1
LLC sets: 2048
LLC ways: 16
Off-chip DRAM Size: 4096 MB Channels: 1 Width: 64-bit Data Rate: 3200 MT/s

CPU 0 runs /home/mbaradaran/ChampSim/dpc3_traces/server_023.champsimtrace.xz
CPU 0 L1I next line prefetcher
CPU 0 L1D next line prefetcher
Heartbeat CPU 0 instructions: 10000000 cycles: 3510417 heartbeat IPC: 2.84866 cumulative IPC: 2.84866 (Simulation time: 0 hr 1 min 41 sec) 
Heartbeat CPU 0 instructions: 20000000 cycles: 7020762 heartbeat IPC: 2.84872 cumulative IPC: 2.84869 (Simulation time: 0 hr 3 min 31 sec) 
Heartbeat CPU 0 instructions: 30000001 cycles: 10525225 heartbeat IPC: 2.8535 cumulative IPC: 2.8503 (Simulation time: 0 hr 5 min 15 sec) 
Heartbeat CPU 0 instructions: 40000002 cycles: 14034915 heartbeat IPC: 2.84925 cumulative IPC: 2.85004 (Simulation time: 0 hr 6 min 56 sec) 
Heartbeat CPU 0 instructions: 50000001 cycles: 17546125 heartbeat IPC: 2.84802 cumulative IPC: 2.84963 (Simulation time: 0 hr 8 min 47 sec) 

Warmup complete CPU 0 instructions: 50000001 cycles: 17546125 (Simulation time: 0 hr 8 min 47 sec) 

Heartbeat CPU 0 instructions: 60000000 cycles: 25573088 heartbeat IPC: 1.2458 cumulative IPC: 1.2458 (Simulation time: 0 hr 10 min 17 sec) 
Heartbeat CPU 0 instructions: 70000000 cycles: 33804804 heartbeat IPC: 1.21481 cumulative IPC: 1.23011 (Simulation time: 0 hr 11 min 51 sec) 
Heartbeat CPU 0 instructions: 80000000 cycles: 41931783 heartbeat IPC: 1.23047 cumulative IPC: 1.23023 (Simulation time: 0 hr 13 min 21 sec) 
Heartbeat CPU 0 instructions: 90000000 cycles: 49929941 heartbeat IPC: 1.25029 cumulative IPC: 1.23518 (Simulation time: 0 hr 14 min 47 sec) 
Heartbeat CPU 0 instructions: 100000001 cycles: 58025081 heartbeat IPC: 1.23531 cumulative IPC: 1.23521 (Simulation time: 0 hr 16 min 16 sec) 
Finished CPU 0 instructions: 50000000 cycles: 40478956 cumulative IPC: 1.23521 (Simulation time: 0 hr 16 min 16 sec) 

ChampSim completed all CPUs

Region of Interest Statistics

CPU 0 cumulative IPC: 1.23521 instructions: 50000000 cycles: 40478956

SHEET
IPC : 1.23521

L1D TOTAL     ACCESS:   20346990  HIT:   18879284  MISS:    1467706
L1D LOAD      ACCESS:    7333942  HIT:    6675785  MISS:     658157
L1D RFO       ACCESS:    5997554  HIT:    5735354  MISS:     262200
L1D PREFETCH  ACCESS:    7015494  HIT:    6468145  MISS:     547349
L1D WRITEBACK ACCESS:          0  HIT:          0  MISS:          0
L1D PREFETCH  REQUESTED:    7390268  ISSUED:    7273250  USEFUL:     132228  USELESS:     415130
L1D AVERAGE MISS LATENCY: 26.6563 cycles
L1D

SHEET
L1D-total_access : 20346990
L1D-total_hit : 18879284
L1D-total_miss : 1467706
L1D-load_access : 7333942
L1D-load_hit : 6675785
L1D-load_miss : 658157
L1D-rfo_access : 5997554
L1D-rfo_hit : 5735354
L1D-rfo_miss : 262200
L1D-prefetch_access : 7015494
L1D-prefetch_hit : 6468145
L1D-prefetch_miss : 547349
L1D-writeback_access : 0
L1D-writeback_hit : 0
L1D-writeback_miss : 0
L1D-prefetch_requested : 7390268
L1D-prefetch_issued : 7273250
L1D-prefetch_useful : 132228
L1D-prefetch_useless : 415130
L1D-Avg_miss_latency : 26.6563

L1I TOTAL     ACCESS:   13581423  HIT:    8942000  MISS:    4639423
L1I LOAD      ACCESS:    9298671  HIT:    8122733  MISS:    1175938
L1I RFO       ACCESS:          0  HIT:          0  MISS:          0
L1I PREFETCH  ACCESS:    4282752  HIT:     819267  MISS:    3463485
L1I WRITEBACK ACCESS:          0  HIT:          0  MISS:          0
L1I PREFETCH  REQUESTED:    4816626  ISSUED:    4816617  USEFUL:    1787053  USELESS:    1676459
L1I AVERAGE MISS LATENCY: 18.981 cycles
L1I

SHEET
L1I-total_access : 13581423
L1I-total_hit : 8942000
L1I-total_miss : 4639423
L1I-load_access : 9298671
L1I-load_hit : 8122733
L1I-load_miss : 1175938
L1I-rfo_access : 0
L1I-rfo_hit : 0
L1I-rfo_miss : 0
L1I-prefetch_access : 4282752
L1I-prefetch_hit : 819267
L1I-prefetch_miss : 3463485
L1I-writeback_access : 0
L1I-writeback_hit : 0
L1I-writeback_miss : 0
L1I-prefetch_requested : 4816626
L1I-prefetch_issued : 4816617
L1I-prefetch_useful : 1787053
L1I-prefetch_useless : 1676459
L1I-Avg_miss_latency : 18.981

L2C TOTAL     ACCESS:    8412885  HIT:    7268275  MISS:    1144610
L2C LOAD      ACCESS:    1606919  HIT:    1297850  MISS:     309069
L2C RFO       ACCESS:     259930  HIT:     146594  MISS:     113336
L2C PREFETCH  ACCESS:    6046769  HIT:    5328214  MISS:     718555
L2C WRITEBACK ACCESS:     499267  HIT:     495617  MISS:       3650
L2C PREFETCH  REQUESTED:    8379525  ISSUED:    8373325  USEFUL:      67495  USELESS:     650969
L2C AVERAGE MISS LATENCY: 39.3878 cycles
L2C

SHEET
L2C-total_access : 8412885
L2C-total_hit : 7268275
L2C-total_miss : 1144610
L2C-load_access : 1606919
L2C-load_hit : 1297850
L2C-load_miss : 309069
L2C-rfo_access : 259930
L2C-rfo_hit : 146594
L2C-rfo_miss : 113336
L2C-prefetch_access : 6046769
L2C-prefetch_hit : 5328214
L2C-prefetch_miss : 718555
L2C-writeback_access : 499267
L2C-writeback_hit : 495617
L2C-writeback_miss : 3650
L2C-prefetch_requested : 8379525
L2C-prefetch_issued : 8373325
L2C-prefetch_useful : 67495
L2C-prefetch_useless : 650969
L2C-Avg_miss_latency : 39.3878

LLC TOTAL     ACCESS:    2782697  HIT:    2729576  MISS:      53121
LLC LOAD      ACCESS:     308844  HIT:     301976  MISS:       6868
LLC RFO       ACCESS:     113305  HIT:      95539  MISS:      17766
LLC PREFETCH  ACCESS:    2175095  HIT:    2146755  MISS:      28340
LLC WRITEBACK ACCESS:     185453  HIT:     185306  MISS:        147
LLC PREFETCH  REQUESTED:          0  ISSUED:          0  USEFUL:       2684  USELESS:      25524
LLC AVERAGE MISS LATENCY: 180.949 cycles
LLC

SHEET
LLC-total_access : 2782697
LLC-total_hit : 2729576
LLC-total_miss : 53121
LLC-load_access : 308844
LLC-load_hit : 301976
LLC-load_miss : 6868
LLC-rfo_access : 113305
LLC-rfo_hit : 95539
LLC-rfo_miss : 17766
LLC-prefetch_access : 2175095
LLC-prefetch_hit : 2146755
LLC-prefetch_miss : 28340
LLC-writeback_access : 185453
LLC-writeback_hit : 185306
LLC-writeback_miss : 147
LLC-prefetch_requested : 0
LLC-prefetch_issued : 0
LLC-prefetch_useful : 2684
LLC-prefetch_useless : 25524
LLC-Avg_miss_latency : 180.949

Major fault: 0 Minor fault: 2775
I-Shadow cache 408 bytes
Touched + WorthPF tables 3072 bytes 
MMA filter 174 bytes 
FNL filter 272 bytes 
TOTAL PREFETCHER STORAGE SIZE: 13014 bytes
CPU 0 L1I next line prefetcher final stats

 morteza stats start 

SHEET
fnlfilter_access_cntr : 29220677
iShadow_access_cntr : 41974616
missahead_access_cntr : 3669941
mmafilter_access_cntr : 7701573
touched_access_cntr : 17683167
worthpf_access_cntr : 30241533


morteza stats endCPU 0 L1D next line prefetcher final stats

DRAM Statistics
 CHANNEL 0
 RQ ROW_BUFFER_HIT:      15776  ROW_BUFFER_MISS:      37182
 DBUS_CONGESTED:      34736
 WQ ROW_BUFFER_HIT:       2397  ROW_BUFFER_MISS:      19181  FULL:          0

 AVG_CONGESTED_CYCLE: 6

CPU 0 Branch Prediction Accuracy: 99.6798% MPKI: 0.58608 Average ROB Occupancy at Mispredict: 103.498

Branch types
NOT_BRANCH: 40848224 81.6964%
BRANCH_DIRECT_JUMP: 548371 1.09674%
BRANCH_INDIRECT: 189802 0.379604%
BRANCH_CONDITIONAL: 6372758 12.7455%
BRANCH_DIRECT_CALL: 862206 1.72441%
BRANCH_INDIRECT_CALL: 158147 0.316294%
BRANCH_RETURN: 1020343 2.04069%
BRANCH_OTHER: 0 0%

