Initialize SIGNATURE TABLE
ST_SET: 1
ST_WAY: 256
ST_TAG_BIT: 16
ST_TAG_MASK: ffff

Initialize PATTERN TABLE
PT_SET: 512
PT_WAY: 4
SIG_DELTA_BIT: 7
C_SIG_BIT: 4
C_DELTA_BIT: 4

Initialize PREFETCH FILTER
FILTER_SET: 1024

*** ChampSim Multicore Out-of-Order Simulator ***

Warmup Instructions: 50000000
Simulation Instructions: 50000000
Number of CPUs: 1
LLC sets: 2048
LLC ways: 16
Off-chip DRAM Size: 4096 MB Channels: 1 Width: 64-bit Data Rate: 3200 MT/s

CPU 0 runs /home/mbaradaran/ChampSim/dpc3_traces/server_016.champsimtrace.xz
CPU 0 L1I next line prefetcher
CPU 0 L1D next line prefetcher
Heartbeat CPU 0 instructions: 10000000 cycles: 3506708 heartbeat IPC: 2.85168 cumulative IPC: 2.85168 (Simulation time: 0 hr 1 min 36 sec) 
Heartbeat CPU 0 instructions: 20000000 cycles: 7011807 heartbeat IPC: 2.85299 cumulative IPC: 2.85233 (Simulation time: 0 hr 3 min 15 sec) 
Heartbeat CPU 0 instructions: 30000001 cycles: 10512374 heartbeat IPC: 2.85668 cumulative IPC: 2.85378 (Simulation time: 0 hr 4 min 52 sec) 
Heartbeat CPU 0 instructions: 40000000 cycles: 13812303 heartbeat IPC: 3.03037 cumulative IPC: 2.89597 (Simulation time: 0 hr 5 min 48 sec) 
Heartbeat CPU 0 instructions: 50000002 cycles: 17047768 heartbeat IPC: 3.09075 cumulative IPC: 2.93294 (Simulation time: 0 hr 6 min 31 sec) 

Warmup complete CPU 0 instructions: 50000002 cycles: 17047768 (Simulation time: 0 hr 6 min 31 sec) 

Heartbeat CPU 0 instructions: 60000000 cycles: 25135493 heartbeat IPC: 1.23644 cumulative IPC: 1.23644 (Simulation time: 0 hr 7 min 15 sec) 
Heartbeat CPU 0 instructions: 70000001 cycles: 33231708 heartbeat IPC: 1.23515 cumulative IPC: 1.23579 (Simulation time: 0 hr 8 min 43 sec) 
Heartbeat CPU 0 instructions: 80000000 cycles: 41487668 heartbeat IPC: 1.21125 cumulative IPC: 1.2275 (Simulation time: 0 hr 10 min 15 sec) 
Heartbeat CPU 0 instructions: 90000000 cycles: 49408170 heartbeat IPC: 1.26255 cumulative IPC: 1.23608 (Simulation time: 0 hr 11 min 49 sec) 
Heartbeat CPU 0 instructions: 100000000 cycles: 57522894 heartbeat IPC: 1.23233 cumulative IPC: 1.23533 (Simulation time: 0 hr 13 min 19 sec) 
Finished CPU 0 instructions: 50000000 cycles: 40475131 cumulative IPC: 1.23533 (Simulation time: 0 hr 13 min 19 sec) 

ChampSim completed all CPUs

Region of Interest Statistics

CPU 0 cumulative IPC: 1.23533 instructions: 50000000 cycles: 40475131

SHEET
IPC : 1.23533

L1D TOTAL     ACCESS:   18815475  HIT:   17547199  MISS:    1268276
L1D LOAD      ACCESS:    6942664  HIT:    6372110  MISS:     570554
L1D RFO       ACCESS:    5211190  HIT:    4988046  MISS:     223144
L1D PREFETCH  ACCESS:    6661621  HIT:    6187043  MISS:     474578
L1D WRITEBACK ACCESS:          0  HIT:          0  MISS:          0
L1D PREFETCH  REQUESTED:    6988523  ISSUED:    6888227  USEFUL:     114940  USELESS:     359656
L1D AVERAGE MISS LATENCY: 25.7117 cycles
L1D

SHEET
L1D-total_access : 18815475
L1D-total_hit : 17547199
L1D-total_miss : 1268276
L1D-load_access : 6942664
L1D-load_hit : 6372110
L1D-load_miss : 570554
L1D-rfo_access : 5211190
L1D-rfo_hit : 4988046
L1D-rfo_miss : 223144
L1D-prefetch_access : 6661621
L1D-prefetch_hit : 6187043
L1D-prefetch_miss : 474578
L1D-writeback_access : 0
L1D-writeback_hit : 0
L1D-writeback_miss : 0
L1D-prefetch_requested : 6988523
L1D-prefetch_issued : 6888227
L1D-prefetch_useful : 114940
L1D-prefetch_useless : 359656
L1D-Avg_miss_latency : 25.7117

L1I TOTAL     ACCESS:   13502636  HIT:    9485673  MISS:    4016963
L1I LOAD      ACCESS:    9758129  HIT:    8747922  MISS:    1010207
L1I RFO       ACCESS:          0  HIT:          0  MISS:          0
L1I PREFETCH  ACCESS:    3744507  HIT:     737751  MISS:    3006756
L1I WRITEBACK ACCESS:          0  HIT:          0  MISS:          0
L1I PREFETCH  REQUESTED:    4201790  ISSUED:    4201790  USEFUL:    1557666  USELESS:    1449077
L1I AVERAGE MISS LATENCY: 18.8231 cycles
L1I

SHEET
L1I-total_access : 13502636
L1I-total_hit : 9485673
L1I-total_miss : 4016963
L1I-load_access : 9758129
L1I-load_hit : 8747922
L1I-load_miss : 1010207
L1I-rfo_access : 0
L1I-rfo_hit : 0
L1I-rfo_miss : 0
L1I-prefetch_access : 3744507
L1I-prefetch_hit : 737751
L1I-prefetch_miss : 3006756
L1I-writeback_access : 0
L1I-writeback_hit : 0
L1I-writeback_miss : 0
L1I-prefetch_requested : 4201790
L1I-prefetch_issued : 4201790
L1I-prefetch_useful : 1557666
L1I-prefetch_useless : 1449077
L1I-Avg_miss_latency : 18.8231

L2C TOTAL     ACCESS:    7215533  HIT:    6247938  MISS:     967595
L2C LOAD      ACCESS:    1381877  HIT:    1124852  MISS:     257025
L2C RFO       ACCESS:     221055  HIT:     137541  MISS:      83514
L2C PREFETCH  ACCESS:    5184372  HIT:    4560367  MISS:     624005
L2C WRITEBACK ACCESS:     428229  HIT:     425178  MISS:       3051
L2C PREFETCH  REQUESTED:    6917816  ISSUED:    6912186  USEFUL:      57870  USELESS:     565646
L2C AVERAGE MISS LATENCY: 38.6691 cycles
L2C

SHEET
L2C-total_access : 7215533
L2C-total_hit : 6247938
L2C-total_miss : 967595
L2C-load_access : 1381877
L2C-load_hit : 1124852
L2C-load_miss : 257025
L2C-rfo_access : 221055
L2C-rfo_hit : 137541
L2C-rfo_miss : 83514
L2C-prefetch_access : 5184372
L2C-prefetch_hit : 4560367
L2C-prefetch_miss : 624005
L2C-writeback_access : 428229
L2C-writeback_hit : 425178
L2C-writeback_miss : 3051
L2C-prefetch_requested : 6917816
L2C-prefetch_issued : 6912186
L2C-prefetch_useful : 57870
L2C-prefetch_useless : 565646
L2C-Avg_miss_latency : 38.6691

LLC TOTAL     ACCESS:    2347825  HIT:    2308051  MISS:      39774
LLC LOAD      ACCESS:     256837  HIT:     251964  MISS:       4873
LLC RFO       ACCESS:      83510  HIT:      70153  MISS:      13357
LLC PREFETCH  ACCESS:    1867464  HIT:    1846033  MISS:      21431
LLC WRITEBACK ACCESS:     140014  HIT:     139901  MISS:        113
LLC PREFETCH  REQUESTED:          0  ISSUED:          0  USEFUL:       2107  USELESS:      18653
LLC AVERAGE MISS LATENCY: 178.219 cycles
LLC

SHEET
LLC-total_access : 2347825
LLC-total_hit : 2308051
LLC-total_miss : 39774
LLC-load_access : 256837
LLC-load_hit : 251964
LLC-load_miss : 4873
LLC-rfo_access : 83510
LLC-rfo_hit : 70153
LLC-rfo_miss : 13357
LLC-prefetch_access : 1867464
LLC-prefetch_hit : 1846033
LLC-prefetch_miss : 21431
LLC-writeback_access : 140014
LLC-writeback_hit : 139901
LLC-writeback_miss : 113
LLC-prefetch_requested : 0
LLC-prefetch_issued : 0
LLC-prefetch_useful : 2107
LLC-prefetch_useless : 18653
LLC-Avg_miss_latency : 178.219

Major fault: 0 Minor fault: 2375
I-Shadow cache 408 bytes
Touched + WorthPF tables 3072 bytes 
MMA filter 174 bytes 
FNL filter 272 bytes 
TOTAL PREFETCHER STORAGE SIZE: 13014 bytes
CPU 0 L1I next line prefetcher final stats

 morteza stats start 

SHEET
fnlfilter_access_cntr : 21978235
iShadow_access_cntr : 43383760
missahead_access_cntr : 2747298
mmafilter_access_cntr : 5820605
touched_access_cntr : 13240179
worthpf_access_cntr : 22715030


morteza stats endCPU 0 L1D next line prefetcher final stats

DRAM Statistics
 CHANNEL 0
 RQ ROW_BUFFER_HIT:      11935  ROW_BUFFER_MISS:      27723
 DBUS_CONGESTED:      25335
 WQ ROW_BUFFER_HIT:       1664  ROW_BUFFER_MISS:      15211  FULL:          0

 AVG_CONGESTED_CYCLE: 6

CPU 0 Branch Prediction Accuracy: 99.7225% MPKI: 0.50376 Average ROB Occupancy at Mispredict: 95.4967

Branch types
NOT_BRANCH: 40923865 81.8477%
BRANCH_DIRECT_JUMP: 487044 0.974088%
BRANCH_INDIRECT: 169158 0.338316%
BRANCH_CONDITIONAL: 6640821 13.2816%
BRANCH_DIRECT_CALL: 755585 1.51117%
BRANCH_INDIRECT_CALL: 133962 0.267924%
BRANCH_RETURN: 889565 1.77913%
BRANCH_OTHER: 0 0%

