Initialize SIGNATURE TABLE
ST_SET: 1
ST_WAY: 256
ST_TAG_BIT: 16
ST_TAG_MASK: ffff

Initialize PATTERN TABLE
PT_SET: 512
PT_WAY: 4
SIG_DELTA_BIT: 7
C_SIG_BIT: 4
C_DELTA_BIT: 4

Initialize PREFETCH FILTER
FILTER_SET: 1024

*** ChampSim Multicore Out-of-Order Simulator ***

Warmup Instructions: 50000000
Simulation Instructions: 50000000
Number of CPUs: 1
LLC sets: 2048
LLC ways: 16
Off-chip DRAM Size: 4096 MB Channels: 1 Width: 64-bit Data Rate: 3200 MT/s

CPU 0 runs /home/mbaradaran/ChampSim/dpc3_traces/server_012.champsimtrace.xz
CPU 0 L1I next line prefetcher
CPU 0 L1D next line prefetcher
Heartbeat CPU 0 instructions: 10000002 cycles: 3203935 heartbeat IPC: 3.12116 cumulative IPC: 3.12116 (Simulation time: 0 hr 1 min 29 sec) 
Heartbeat CPU 0 instructions: 20000002 cycles: 6410359 heartbeat IPC: 3.11874 cumulative IPC: 3.11995 (Simulation time: 0 hr 2 min 57 sec) 
Heartbeat CPU 0 instructions: 30000001 cycles: 9617215 heartbeat IPC: 3.11832 cumulative IPC: 3.11941 (Simulation time: 0 hr 4 min 31 sec) 
Heartbeat CPU 0 instructions: 40000000 cycles: 12829755 heartbeat IPC: 3.1128 cumulative IPC: 3.11775 (Simulation time: 0 hr 5 min 59 sec) 
Heartbeat CPU 0 instructions: 50000003 cycles: 16035736 heartbeat IPC: 3.11917 cumulative IPC: 3.11804 (Simulation time: 0 hr 7 min 31 sec) 

Warmup complete CPU 0 instructions: 50000003 cycles: 16035736 (Simulation time: 0 hr 7 min 31 sec) 

Heartbeat CPU 0 instructions: 60000002 cycles: 24931145 heartbeat IPC: 1.12418 cumulative IPC: 1.12418 (Simulation time: 0 hr 8 min 47 sec) 
Heartbeat CPU 0 instructions: 70000000 cycles: 33903761 heartbeat IPC: 1.1145 cumulative IPC: 1.11932 (Simulation time: 0 hr 10 min 6 sec) 
Heartbeat CPU 0 instructions: 80000003 cycles: 42872479 heartbeat IPC: 1.11499 cumulative IPC: 1.11787 (Simulation time: 0 hr 11 min 34 sec) 
Heartbeat CPU 0 instructions: 90000001 cycles: 52106019 heartbeat IPC: 1.08301 cumulative IPC: 1.10895 (Simulation time: 0 hr 12 min 55 sec) 
Heartbeat CPU 0 instructions: 100000002 cycles: 61230454 heartbeat IPC: 1.09596 cumulative IPC: 1.10632 (Simulation time: 0 hr 14 min 20 sec) 
Finished CPU 0 instructions: 50000001 cycles: 45194719 cumulative IPC: 1.10632 (Simulation time: 0 hr 14 min 20 sec) 

ChampSim completed all CPUs

Region of Interest Statistics

CPU 0 cumulative IPC: 1.10632 instructions: 50000001 cycles: 45194719

SHEET
IPC : 1.10632

L1D TOTAL     ACCESS:   18073504  HIT:   17029727  MISS:    1043777
L1D LOAD      ACCESS:    6667694  HIT:    6182933  MISS:     484761
L1D RFO       ACCESS:    4978373  HIT:    4896374  MISS:      81999
L1D PREFETCH  ACCESS:    6427437  HIT:    5950420  MISS:     477017
L1D WRITEBACK ACCESS:          0  HIT:          0  MISS:          0
L1D PREFETCH  REQUESTED:    6705263  ISSUED:    6606520  USEFUL:     136123  USELESS:     340913
L1D AVERAGE MISS LATENCY: 44.3859 cycles
L1D

SHEET
L1D-total_access : 18073504
L1D-total_hit : 17029727
L1D-total_miss : 1043777
L1D-load_access : 6667694
L1D-load_hit : 6182933
L1D-load_miss : 484761
L1D-rfo_access : 4978373
L1D-rfo_hit : 4896374
L1D-rfo_miss : 81999
L1D-prefetch_access : 6427437
L1D-prefetch_hit : 5950420
L1D-prefetch_miss : 477017
L1D-writeback_access : 0
L1D-writeback_hit : 0
L1D-writeback_miss : 0
L1D-prefetch_requested : 6705263
L1D-prefetch_issued : 6606520
L1D-prefetch_useful : 136123
L1D-prefetch_useless : 340913
L1D-Avg_miss_latency : 44.3859

L1I TOTAL     ACCESS:   11774316  HIT:    8442843  MISS:    3331473
L1I LOAD      ACCESS:    8776365  HIT:    7733564  MISS:    1042801
L1I RFO       ACCESS:          0  HIT:          0  MISS:          0
L1I PREFETCH  ACCESS:    2997951  HIT:     709279  MISS:    2288672
L1I WRITEBACK ACCESS:          0  HIT:          0  MISS:          0
L1I PREFETCH  REQUESTED:    3382963  ISSUED:    3382760  USEFUL:    1061723  USELESS:    1226955
L1I AVERAGE MISS LATENCY: 26.716 cycles
L1I

SHEET
L1I-total_access : 11774316
L1I-total_hit : 8442843
L1I-total_miss : 3331473
L1I-load_access : 8776365
L1I-load_hit : 7733564
L1I-load_miss : 1042801
L1I-rfo_access : 0
L1I-rfo_hit : 0
L1I-rfo_miss : 0
L1I-prefetch_access : 2997951
L1I-prefetch_hit : 709279
L1I-prefetch_miss : 2288672
L1I-writeback_access : 0
L1I-writeback_hit : 0
L1I-writeback_miss : 0
L1I-prefetch_requested : 3382963
L1I-prefetch_issued : 3382760
L1I-prefetch_useful : 1061723
L1I-prefetch_useless : 1226955
L1I-Avg_miss_latency : 26.716

L2C TOTAL     ACCESS:    5809707  HIT:    4209850  MISS:    1599857
L2C LOAD      ACCESS:    1339593  HIT:     919319  MISS:     420274
L2C RFO       ACCESS:      80749  HIT:      28996  MISS:      51753
L2C PREFETCH  ACCESS:    4113803  HIT:    2988619  MISS:    1125184
L2C WRITEBACK ACCESS:     275562  HIT:     272916  MISS:       2646
L2C PREFETCH  REQUESTED:    5637825  ISSUED:    5629669  USEFUL:      87942  USELESS:    1037186
L2C AVERAGE MISS LATENCY: 50.1056 cycles
L2C

SHEET
L2C-total_access : 5809707
L2C-total_hit : 4209850
L2C-total_miss : 1599857
L2C-load_access : 1339593
L2C-load_hit : 919319
L2C-load_miss : 420274
L2C-rfo_access : 80749
L2C-rfo_hit : 28996
L2C-rfo_miss : 51753
L2C-prefetch_access : 4113803
L2C-prefetch_hit : 2988619
L2C-prefetch_miss : 1125184
L2C-writeback_access : 275562
L2C-writeback_hit : 272916
L2C-writeback_miss : 2646
L2C-prefetch_requested : 5637825
L2C-prefetch_issued : 5629669
L2C-prefetch_useful : 87942
L2C-prefetch_useless : 1037186
L2C-Avg_miss_latency : 50.1056

LLC TOTAL     ACCESS:    2964268  HIT:    2713568  MISS:     250700
LLC LOAD      ACCESS:     420082  HIT:     379714  MISS:      40368
LLC RFO       ACCESS:      51749  HIT:      39908  MISS:      11841
LLC PREFETCH  ACCESS:    2313126  HIT:    2115000  MISS:     198126
LLC WRITEBACK ACCESS:     179311  HIT:     178946  MISS:        365
LLC PREFETCH  REQUESTED:          0  ISSUED:          0  USEFUL:      15819  USELESS:     181954
LLC AVERAGE MISS LATENCY: 170.18 cycles
LLC

SHEET
LLC-total_access : 2964268
LLC-total_hit : 2713568
LLC-total_miss : 250700
LLC-load_access : 420082
LLC-load_hit : 379714
LLC-load_miss : 40368
LLC-rfo_access : 51749
LLC-rfo_hit : 39908
LLC-rfo_miss : 11841
LLC-prefetch_access : 2313126
LLC-prefetch_hit : 2115000
LLC-prefetch_miss : 198126
LLC-writeback_access : 179311
LLC-writeback_hit : 178946
LLC-writeback_miss : 365
LLC-prefetch_requested : 0
LLC-prefetch_issued : 0
LLC-prefetch_useful : 15819
LLC-prefetch_useless : 181954
LLC-Avg_miss_latency : 170.18

Major fault: 0 Minor fault: 5618
I-Shadow cache 408 bytes
Touched + WorthPF tables 3072 bytes 
MMA filter 174 bytes 
FNL filter 272 bytes 
TOTAL PREFETCHER STORAGE SIZE: 13014 bytes
CPU 0 L1I next line prefetcher final stats

 morteza stats start 

SHEET
fnlfilter_access_cntr : 21978212
iShadow_access_cntr : 39135714
missahead_access_cntr : 3018895
mmafilter_access_cntr : 5239406
touched_access_cntr : 11981700
worthpf_access_cntr : 22651307


morteza stats endCPU 0 L1D next line prefetcher final stats

DRAM Statistics
 CHANNEL 0
 RQ ROW_BUFFER_HIT:      48657  ROW_BUFFER_MISS:     201645
 DBUS_CONGESTED:     112390
 WQ ROW_BUFFER_HIT:      13737  ROW_BUFFER_MISS:      52468  FULL:          0

 AVG_CONGESTED_CYCLE: 5

CPU 0 Branch Prediction Accuracy: 99.4607% MPKI: 1.00288 Average ROB Occupancy at Mispredict: 88.7017

Branch types
NOT_BRANCH: 40700951 81.4019%
BRANCH_DIRECT_JUMP: 469808 0.939616%
BRANCH_INDIRECT: 153732 0.307464%
BRANCH_CONDITIONAL: 6944056 13.8881%
BRANCH_DIRECT_CALL: 679877 1.35975%
BRANCH_INDIRECT_CALL: 168745 0.33749%
BRANCH_RETURN: 882491 1.76498%
BRANCH_OTHER: 0 0%

