Initialize SIGNATURE TABLE
ST_SET: 1
ST_WAY: 256
ST_TAG_BIT: 16
ST_TAG_MASK: ffff

Initialize PATTERN TABLE
PT_SET: 512
PT_WAY: 4
SIG_DELTA_BIT: 7
C_SIG_BIT: 4
C_DELTA_BIT: 4

Initialize PREFETCH FILTER
FILTER_SET: 1024

*** ChampSim Multicore Out-of-Order Simulator ***

Warmup Instructions: 50000000
Simulation Instructions: 50000000
Number of CPUs: 1
LLC sets: 2048
LLC ways: 16
Off-chip DRAM Size: 4096 MB Channels: 1 Width: 64-bit Data Rate: 3200 MT/s

CPU 0 runs /home/mbaradaran/ChampSim/dpc3_traces/server_031.champsimtrace.xz
CPU 0 L1I next line prefetcher
CPU 0 L1D next line prefetcher
Heartbeat CPU 0 instructions: 10000003 cycles: 3530257 heartbeat IPC: 2.83266 cumulative IPC: 2.83266 (Simulation time: 0 hr 1 min 50 sec) 
Heartbeat CPU 0 instructions: 20000002 cycles: 7058273 heartbeat IPC: 2.83445 cumulative IPC: 2.83355 (Simulation time: 0 hr 3 min 17 sec) 
Heartbeat CPU 0 instructions: 30000002 cycles: 10586877 heartbeat IPC: 2.83398 cumulative IPC: 2.8337 (Simulation time: 0 hr 5 min 1 sec) 
Heartbeat CPU 0 instructions: 40000003 cycles: 14110338 heartbeat IPC: 2.83812 cumulative IPC: 2.8348 (Simulation time: 0 hr 6 min 45 sec) 
Heartbeat CPU 0 instructions: 50000001 cycles: 17636809 heartbeat IPC: 2.8357 cumulative IPC: 2.83498 (Simulation time: 0 hr 8 min 23 sec) 

Warmup complete CPU 0 instructions: 50000001 cycles: 17636809 (Simulation time: 0 hr 8 min 23 sec) 

Heartbeat CPU 0 instructions: 60000001 cycles: 26105805 heartbeat IPC: 1.18078 cumulative IPC: 1.18078 (Simulation time: 0 hr 10 min 1 sec) 
Heartbeat CPU 0 instructions: 70000002 cycles: 34663851 heartbeat IPC: 1.16849 cumulative IPC: 1.1746 (Simulation time: 0 hr 11 min 35 sec) 
*** Reached end of trace for Core: 0 Repeating trace: /home/mbaradaran/ChampSim/dpc3_traces/server_031.champsimtrace.xz
Heartbeat CPU 0 instructions: 80000000 cycles: 43049772 heartbeat IPC: 1.19247 cumulative IPC: 1.1805 (Simulation time: 0 hr 13 min 10 sec) 
Heartbeat CPU 0 instructions: 90000001 cycles: 51408994 heartbeat IPC: 1.19628 cumulative IPC: 1.18441 (Simulation time: 0 hr 14 min 49 sec) 
Heartbeat CPU 0 instructions: 100000000 cycles: 59734978 heartbeat IPC: 1.20106 cumulative IPC: 1.1877 (Simulation time: 0 hr 16 min 28 sec) 
Finished CPU 0 instructions: 50000000 cycles: 42098171 cumulative IPC: 1.1877 (Simulation time: 0 hr 16 min 28 sec) 

ChampSim completed all CPUs

Region of Interest Statistics

CPU 0 cumulative IPC: 1.1877 instructions: 50000000 cycles: 42098171

SHEET
IPC : 1.1877

L1D TOTAL     ACCESS:   20236890  HIT:   18331895  MISS:    1904995
L1D LOAD      ACCESS:    7120172  HIT:    6248121  MISS:     872051
L1D RFO       ACCESS:    6334036  HIT:    6041455  MISS:     292581
L1D PREFETCH  ACCESS:    6782682  HIT:    6042319  MISS:     740363
L1D WRITEBACK ACCESS:          0  HIT:          0  MISS:          0
L1D PREFETCH  REQUESTED:    7184460  ISSUED:    7081757  USEFUL:     174766  USELESS:     565601
L1D AVERAGE MISS LATENCY: 24.6446 cycles
L1D

SHEET
L1D-total_access : 20236890
L1D-total_hit : 18331895
L1D-total_miss : 1904995
L1D-load_access : 7120172
L1D-load_hit : 6248121
L1D-load_miss : 872051
L1D-rfo_access : 6334036
L1D-rfo_hit : 6041455
L1D-rfo_miss : 292581
L1D-prefetch_access : 6782682
L1D-prefetch_hit : 6042319
L1D-prefetch_miss : 740363
L1D-writeback_access : 0
L1D-writeback_hit : 0
L1D-writeback_miss : 0
L1D-prefetch_requested : 7184460
L1D-prefetch_issued : 7081757
L1D-prefetch_useful : 174766
L1D-prefetch_useless : 565601
L1D-Avg_miss_latency : 24.6446

L1I TOTAL     ACCESS:   14725239  HIT:    9385308  MISS:    5339931
L1I LOAD      ACCESS:    9514026  HIT:    8370193  MISS:    1143833
L1I RFO       ACCESS:          0  HIT:          0  MISS:          0
L1I PREFETCH  ACCESS:    5211213  HIT:    1015115  MISS:    4196098
L1I WRITEBACK ACCESS:          0  HIT:          0  MISS:          0
L1I PREFETCH  REQUESTED:    5744010  ISSUED:    5744006  USEFUL:    2480885  USELESS:    1715213
L1I AVERAGE MISS LATENCY: 18.2147 cycles
L1I

SHEET
L1I-total_access : 14725239
L1I-total_hit : 9385308
L1I-total_miss : 5339931
L1I-load_access : 9514026
L1I-load_hit : 8370193
L1I-load_miss : 1143833
L1I-rfo_access : 0
L1I-rfo_hit : 0
L1I-rfo_miss : 0
L1I-prefetch_access : 5211213
L1I-prefetch_hit : 1015115
L1I-prefetch_miss : 4196098
L1I-writeback_access : 0
L1I-writeback_hit : 0
L1I-writeback_miss : 0
L1I-prefetch_requested : 5744010
L1I-prefetch_issued : 5744006
L1I-prefetch_useful : 2480885
L1I-prefetch_useless : 1715213
L1I-Avg_miss_latency : 18.2147

L2C TOTAL     ACCESS:   10060341  HIT:    8995686  MISS:    1064655
L2C LOAD      ACCESS:    1803867  HIT:    1524132  MISS:     279735
L2C RFO       ACCESS:     289801  HIT:     222575  MISS:      67226
L2C PREFETCH  ACCESS:    7349886  HIT:    6634864  MISS:     715022
L2C WRITEBACK ACCESS:     616787  HIT:     614115  MISS:       2672
L2C PREFETCH  REQUESTED:    9756608  ISSUED:    9744052  USEFUL:      38443  USELESS:     676091
L2C AVERAGE MISS LATENCY: 40.7496 cycles
L2C

SHEET
L2C-total_access : 10060341
L2C-total_hit : 8995686
L2C-total_miss : 1064655
L2C-load_access : 1803867
L2C-load_hit : 1524132
L2C-load_miss : 279735
L2C-rfo_access : 289801
L2C-rfo_hit : 222575
L2C-rfo_miss : 67226
L2C-prefetch_access : 7349886
L2C-prefetch_hit : 6634864
L2C-prefetch_miss : 715022
L2C-writeback_access : 616787
L2C-writeback_hit : 614115
L2C-writeback_miss : 2672
L2C-prefetch_requested : 9756608
L2C-prefetch_issued : 9744052
L2C-prefetch_useful : 38443
L2C-prefetch_useless : 676091
L2C-Avg_miss_latency : 40.7496

LLC TOTAL     ACCESS:    3231938  HIT:    3137420  MISS:      94518
LLC LOAD      ACCESS:     279709  HIT:     259895  MISS:      19814
LLC RFO       ACCESS:      67226  HIT:      62990  MISS:       4236
LLC PREFETCH  ACCESS:    2762116  HIT:    2692291  MISS:      69825
LLC WRITEBACK ACCESS:     122887  HIT:     122244  MISS:        643
LLC PREFETCH  REQUESTED:          0  ISSUED:          0  USEFUL:       3076  USELESS:      66131
LLC AVERAGE MISS LATENCY: 162.94 cycles
LLC

SHEET
LLC-total_access : 3231938
LLC-total_hit : 3137420
LLC-total_miss : 94518
LLC-load_access : 279709
LLC-load_hit : 259895
LLC-load_miss : 19814
LLC-rfo_access : 67226
LLC-rfo_hit : 62990
LLC-rfo_miss : 4236
LLC-prefetch_access : 2762116
LLC-prefetch_hit : 2692291
LLC-prefetch_miss : 69825
LLC-writeback_access : 122887
LLC-writeback_hit : 122244
LLC-writeback_miss : 643
LLC-prefetch_requested : 0
LLC-prefetch_issued : 0
LLC-prefetch_useful : 3076
LLC-prefetch_useless : 66131
LLC-Avg_miss_latency : 162.94

Major fault: 0 Minor fault: 6050
I-Shadow cache 408 bytes
Touched + WorthPF tables 3072 bytes 
MMA filter 174 bytes 
FNL filter 272 bytes 
TOTAL PREFETCHER STORAGE SIZE: 13014 bytes
CPU 0 L1I next line prefetcher final stats

 morteza stats start 

SHEET
fnlfilter_access_cntr : 33819224
iShadow_access_cntr : 42908848
missahead_access_cntr : 4803569
mmafilter_access_cntr : 10413242
touched_access_cntr : 21397809
worthpf_access_cntr : 34511797


morteza stats endCPU 0 L1D next line prefetcher final stats

DRAM Statistics
 CHANNEL 0
 RQ ROW_BUFFER_HIT:      24568  ROW_BUFFER_MISS:      69307
 DBUS_CONGESTED:      41632
 WQ ROW_BUFFER_HIT:        849  ROW_BUFFER_MISS:       5274  FULL:          0

 AVG_CONGESTED_CYCLE: 5

CPU 0 Branch Prediction Accuracy: 99.6894% MPKI: 0.58048 Average ROB Occupancy at Mispredict: 125.824

Branch types
NOT_BRANCH: 40655645 81.3113%
BRANCH_DIRECT_JUMP: 546484 1.09297%
BRANCH_INDIRECT: 172434 0.344868%
BRANCH_CONDITIONAL: 6207580 12.4152%
BRANCH_DIRECT_CALL: 1018499 2.037%
BRANCH_INDIRECT_CALL: 190374 0.380748%
BRANCH_RETURN: 1208857 2.41771%
BRANCH_OTHER: 0 0%

