Initialize SIGNATURE TABLE
ST_SET: 1
ST_WAY: 256
ST_TAG_BIT: 16
ST_TAG_MASK: ffff

Initialize PATTERN TABLE
PT_SET: 512
PT_WAY: 4
SIG_DELTA_BIT: 7
C_SIG_BIT: 4
C_DELTA_BIT: 4

Initialize PREFETCH FILTER
FILTER_SET: 1024

*** ChampSim Multicore Out-of-Order Simulator ***

Warmup Instructions: 50000000
Simulation Instructions: 50000000
Number of CPUs: 1
LLC sets: 2048
LLC ways: 16
Off-chip DRAM Size: 4096 MB Channels: 1 Width: 64-bit Data Rate: 3200 MT/s

CPU 0 runs /home/mbaradaran/ChampSim/dpc3_traces/server_037.champsimtrace.xz
CPU 0 L1I next line prefetcher
CPU 0 L1D next line prefetcher
Heartbeat CPU 0 instructions: 10000001 cycles: 3322461 heartbeat IPC: 3.00982 cumulative IPC: 3.00982 (Simulation time: 0 hr 1 min 43 sec) 
Heartbeat CPU 0 instructions: 20000002 cycles: 6642110 heartbeat IPC: 3.01237 cumulative IPC: 3.01109 (Simulation time: 0 hr 3 min 25 sec) 
Heartbeat CPU 0 instructions: 30000003 cycles: 10009589 heartbeat IPC: 2.96958 cumulative IPC: 2.99713 (Simulation time: 0 hr 4 min 59 sec) 
Heartbeat CPU 0 instructions: 40000000 cycles: 13330810 heartbeat IPC: 3.01094 cumulative IPC: 3.00057 (Simulation time: 0 hr 6 min 19 sec) 
Heartbeat CPU 0 instructions: 50000003 cycles: 16651454 heartbeat IPC: 3.01146 cumulative IPC: 3.00274 (Simulation time: 0 hr 7 min 40 sec) 

Warmup complete CPU 0 instructions: 50000003 cycles: 16651454 (Simulation time: 0 hr 7 min 40 sec) 

Heartbeat CPU 0 instructions: 60000001 cycles: 23075894 heartbeat IPC: 1.55656 cumulative IPC: 1.55656 (Simulation time: 0 hr 9 min 14 sec) 
Heartbeat CPU 0 instructions: 70000000 cycles: 29592368 heartbeat IPC: 1.53457 cumulative IPC: 1.54549 (Simulation time: 0 hr 10 min 45 sec) 
Heartbeat CPU 0 instructions: 80000000 cycles: 35994778 heartbeat IPC: 1.56191 cumulative IPC: 1.55092 (Simulation time: 0 hr 12 min 12 sec) 
Heartbeat CPU 0 instructions: 90000002 cycles: 42415240 heartbeat IPC: 1.55752 cumulative IPC: 1.55257 (Simulation time: 0 hr 13 min 34 sec) 
*** Reached end of trace for Core: 0 Repeating trace: /home/mbaradaran/ChampSim/dpc3_traces/server_037.champsimtrace.xz
Heartbeat CPU 0 instructions: 100000000 cycles: 48853359 heartbeat IPC: 1.55325 cumulative IPC: 1.5527 (Simulation time: 0 hr 14 min 53 sec) 
Finished CPU 0 instructions: 50000001 cycles: 32201906 cumulative IPC: 1.5527 (Simulation time: 0 hr 14 min 53 sec) 

ChampSim completed all CPUs

Region of Interest Statistics

CPU 0 cumulative IPC: 1.5527 instructions: 50000001 cycles: 32201906

SHEET
IPC : 1.5527

L1D TOTAL     ACCESS:   18709437  HIT:   17731504  MISS:     977933
L1D LOAD      ACCESS:    6369823  HIT:    5878641  MISS:     491182
L1D RFO       ACCESS:    6205070  HIT:    6141053  MISS:      64017
L1D PREFETCH  ACCESS:    6134544  HIT:    5711810  MISS:     422734
L1D WRITEBACK ACCESS:          0  HIT:          0  MISS:          0
L1D PREFETCH  REQUESTED:    6407020  ISSUED:    6254381  USEFUL:     117590  USELESS:     305148
L1D AVERAGE MISS LATENCY: 29.3116 cycles
L1D

SHEET
L1D-total_access : 18709437
L1D-total_hit : 17731504
L1D-total_miss : 977933
L1D-load_access : 6369823
L1D-load_hit : 5878641
L1D-load_miss : 491182
L1D-rfo_access : 6205070
L1D-rfo_hit : 6141053
L1D-rfo_miss : 64017
L1D-prefetch_access : 6134544
L1D-prefetch_hit : 5711810
L1D-prefetch_miss : 422734
L1D-writeback_access : 0
L1D-writeback_hit : 0
L1D-writeback_miss : 0
L1D-prefetch_requested : 6407020
L1D-prefetch_issued : 6254381
L1D-prefetch_useful : 117590
L1D-prefetch_useless : 305148
L1D-Avg_miss_latency : 29.3116

L1I TOTAL     ACCESS:   16747370  HIT:   10544497  MISS:    6202873
L1I LOAD      ACCESS:    9431948  HIT:    9245314  MISS:     186634
L1I RFO       ACCESS:          0  HIT:          0  MISS:          0
L1I PREFETCH  ACCESS:    7315422  HIT:    1299183  MISS:    6016239
L1I WRITEBACK ACCESS:          0  HIT:          0  MISS:          0
L1I PREFETCH  REQUESTED:    7553818  ISSUED:    7553814  USEFUL:    4449083  USELESS:    1567160
L1I AVERAGE MISS LATENCY: 15.0244 cycles
L1I

SHEET
L1I-total_access : 16747370
L1I-total_hit : 10544497
L1I-total_miss : 6202873
L1I-load_access : 9431948
L1I-load_hit : 9245314
L1I-load_miss : 186634
L1I-rfo_access : 0
L1I-rfo_hit : 0
L1I-rfo_miss : 0
L1I-prefetch_access : 7315422
L1I-prefetch_hit : 1299183
L1I-prefetch_miss : 6016239
L1I-writeback_access : 0
L1I-writeback_hit : 0
L1I-writeback_miss : 0
L1I-prefetch_requested : 7553818
L1I-prefetch_issued : 7553814
L1I-prefetch_useful : 4449083
L1I-prefetch_useless : 1567160
L1I-Avg_miss_latency : 15.0244

L2C TOTAL     ACCESS:   10445286  HIT:   10120430  MISS:     324856
L2C LOAD      ACCESS:     657292  HIT:     512684  MISS:     144608
L2C RFO       ACCESS:      63758  HIT:      36087  MISS:      27671
L2C PREFETCH  ACCESS:    9434784  HIT:    9283192  MISS:     151592
L2C WRITEBACK ACCESS:     289452  HIT:     288467  MISS:        985
L2C PREFETCH  REQUESTED:   10102906  ISSUED:   10075256  USEFUL:       7649  USELESS:     143736
L2C AVERAGE MISS LATENCY: 44.9145 cycles
L2C

SHEET
L2C-total_access : 10445286
L2C-total_hit : 10120430
L2C-total_miss : 324856
L2C-load_access : 657292
L2C-load_hit : 512684
L2C-load_miss : 144608
L2C-rfo_access : 63758
L2C-rfo_hit : 36087
L2C-rfo_miss : 27671
L2C-prefetch_access : 9434784
L2C-prefetch_hit : 9283192
L2C-prefetch_miss : 151592
L2C-writeback_access : 289452
L2C-writeback_hit : 288467
L2C-writeback_miss : 985
L2C-prefetch_requested : 10102906
L2C-prefetch_issued : 10075256
L2C-prefetch_useful : 7649
L2C-prefetch_useless : 143736
L2C-Avg_miss_latency : 44.9145

LLC TOTAL     ACCESS:    1742308  HIT:    1688021  MISS:      54287
LLC LOAD      ACCESS:     144567  HIT:     131583  MISS:      12984
LLC RFO       ACCESS:      27671  HIT:      23116  MISS:       4555
LLC PREFETCH  ACCESS:    1427799  HIT:    1391582  MISS:      36217
LLC WRITEBACK ACCESS:     142271  HIT:     141740  MISS:        531
LLC PREFETCH  REQUESTED:          0  ISSUED:          0  USEFUL:       3879  USELESS:      32469
LLC AVERAGE MISS LATENCY: 164.091 cycles
LLC

SHEET
LLC-total_access : 1742308
LLC-total_hit : 1688021
LLC-total_miss : 54287
LLC-load_access : 144567
LLC-load_hit : 131583
LLC-load_miss : 12984
LLC-rfo_access : 27671
LLC-rfo_hit : 23116
LLC-rfo_miss : 4555
LLC-prefetch_access : 1427799
LLC-prefetch_hit : 1391582
LLC-prefetch_miss : 36217
LLC-writeback_access : 142271
LLC-writeback_hit : 141740
LLC-writeback_miss : 531
LLC-prefetch_requested : 0
LLC-prefetch_issued : 0
LLC-prefetch_useful : 3879
LLC-prefetch_useless : 32469
LLC-Avg_miss_latency : 164.091

Major fault: 0 Minor fault: 5657
I-Shadow cache 408 bytes
Touched + WorthPF tables 3072 bytes 
MMA filter 174 bytes 
FNL filter 272 bytes 
TOTAL PREFETCHER STORAGE SIZE: 13014 bytes
CPU 0 L1I next line prefetcher final stats

 morteza stats start 

SHEET
fnlfilter_access_cntr : 42520357
iShadow_access_cntr : 42082442
missahead_access_cntr : 9063753
mmafilter_access_cntr : 19240229
touched_access_cntr : 27628701
worthpf_access_cntr : 39540469


morteza stats endCPU 0 L1D next line prefetcher final stats

DRAM Statistics
 CHANNEL 0
 RQ ROW_BUFFER_HIT:       8457  ROW_BUFFER_MISS:      45299
 DBUS_CONGESTED:      24544
 WQ ROW_BUFFER_HIT:       1124  ROW_BUFFER_MISS:      10295  FULL:          0

 AVG_CONGESTED_CYCLE: 5

CPU 0 Branch Prediction Accuracy: 99.913% MPKI: 0.15656 Average ROB Occupancy at Mispredict: 215.899

Branch types
NOT_BRANCH: 41001712 82.0034%
BRANCH_DIRECT_JUMP: 541941 1.08388%
BRANCH_INDIRECT: 59716 0.119432%
BRANCH_CONDITIONAL: 5916852 11.8337%
BRANCH_DIRECT_CALL: 1005465 2.01093%
BRANCH_INDIRECT_CALL: 234433 0.468866%
BRANCH_RETURN: 1239878 2.47976%
BRANCH_OTHER: 0 0%

