Initialize SIGNATURE TABLE
ST_SET: 1
ST_WAY: 256
ST_TAG_BIT: 16
ST_TAG_MASK: ffff

Initialize PATTERN TABLE
PT_SET: 512
PT_WAY: 4
SIG_DELTA_BIT: 7
C_SIG_BIT: 4
C_DELTA_BIT: 4

Initialize PREFETCH FILTER
FILTER_SET: 1024

*** ChampSim Multicore Out-of-Order Simulator ***

Warmup Instructions: 50000000
Simulation Instructions: 50000000
Number of CPUs: 1
LLC sets: 2048
LLC ways: 16
Off-chip DRAM Size: 4096 MB Channels: 1 Width: 64-bit Data Rate: 3200 MT/s

CPU 0 runs /home/mbaradaran/ChampSim/dpc3_traces/server_018.champsimtrace.xz
CPU 0 L1I next line prefetcher
CPU 0 L1D next line prefetcher
Heartbeat CPU 0 instructions: 10000003 cycles: 3622666 heartbeat IPC: 2.7604 cumulative IPC: 2.7604 (Simulation time: 0 hr 1 min 37 sec) 
Heartbeat CPU 0 instructions: 20000001 cycles: 7251224 heartbeat IPC: 2.75592 cumulative IPC: 2.75816 (Simulation time: 0 hr 3 min 23 sec) 
Heartbeat CPU 0 instructions: 30000003 cycles: 10731055 heartbeat IPC: 2.8737 cumulative IPC: 2.79562 (Simulation time: 0 hr 5 min 7 sec) 
Heartbeat CPU 0 instructions: 40000000 cycles: 14248126 heartbeat IPC: 2.84327 cumulative IPC: 2.80739 (Simulation time: 0 hr 7 min 3 sec) 
Heartbeat CPU 0 instructions: 50000003 cycles: 17871981 heartbeat IPC: 2.75949 cumulative IPC: 2.79768 (Simulation time: 0 hr 8 min 52 sec) 

Warmup complete CPU 0 instructions: 50000003 cycles: 17871981 (Simulation time: 0 hr 8 min 52 sec) 

Heartbeat CPU 0 instructions: 60000000 cycles: 34965910 heartbeat IPC: 0.585003 cumulative IPC: 0.585003 (Simulation time: 0 hr 11 min 22 sec) 
Heartbeat CPU 0 instructions: 70000001 cycles: 52089696 heartbeat IPC: 0.583983 cumulative IPC: 0.584493 (Simulation time: 0 hr 13 min 42 sec) 
Heartbeat CPU 0 instructions: 80000000 cycles: 69169389 heartbeat IPC: 0.585491 cumulative IPC: 0.584825 (Simulation time: 0 hr 16 min 7 sec) 
Heartbeat CPU 0 instructions: 90000002 cycles: 86218665 heartbeat IPC: 0.586535 cumulative IPC: 0.585252 (Simulation time: 0 hr 18 min 33 sec) 
Heartbeat CPU 0 instructions: 100000001 cycles: 103308586 heartbeat IPC: 0.58514 cumulative IPC: 0.585229 (Simulation time: 0 hr 21 min 0 sec) 
Finished CPU 0 instructions: 50000002 cycles: 85436606 cumulative IPC: 0.585229 (Simulation time: 0 hr 21 min 0 sec) 

ChampSim completed all CPUs

Region of Interest Statistics

CPU 0 cumulative IPC: 0.585229 instructions: 50000002 cycles: 85436606

SHEET
IPC : 0.585229

L1D TOTAL     ACCESS:   18641787  HIT:   16424021  MISS:    2217766
L1D LOAD      ACCESS:    7067033  HIT:    6348358  MISS:     718675
L1D RFO       ACCESS:    5782826  HIT:    4830606  MISS:     952220
L1D PREFETCH  ACCESS:    5791928  HIT:    5245057  MISS:     546871
L1D WRITEBACK ACCESS:          0  HIT:          0  MISS:          0
L1D PREFETCH  REQUESTED:    7110085  ISSUED:    6906784  USEFUL:     207112  USELESS:     339848
L1D AVERAGE MISS LATENCY: 174.543 cycles
L1D

SHEET
L1D-total_access : 18641787
L1D-total_hit : 16424021
L1D-total_miss : 2217766
L1D-load_access : 7067033
L1D-load_hit : 6348358
L1D-load_miss : 718675
L1D-rfo_access : 5782826
L1D-rfo_hit : 4830606
L1D-rfo_miss : 952220
L1D-prefetch_access : 5791928
L1D-prefetch_hit : 5245057
L1D-prefetch_miss : 546871
L1D-writeback_access : 0
L1D-writeback_hit : 0
L1D-writeback_miss : 0
L1D-prefetch_requested : 7110085
L1D-prefetch_issued : 6906784
L1D-prefetch_useful : 207112
L1D-prefetch_useless : 339848
L1D-Avg_miss_latency : 174.543

L1I TOTAL     ACCESS:   15404342  HIT:   10871484  MISS:    4532858
L1I LOAD      ACCESS:   10079435  HIT:    9840336  MISS:     239099
L1I RFO       ACCESS:          0  HIT:          0  MISS:          0
L1I PREFETCH  ACCESS:    5324907  HIT:    1031148  MISS:    4293759
L1I WRITEBACK ACCESS:          0  HIT:          0  MISS:          0
L1I PREFETCH  REQUESTED:    5497186  ISSUED:    5497161  USEFUL:    3041502  USELESS:    1252221
L1I AVERAGE MISS LATENCY: 17.171 cycles
L1I

SHEET
L1I-total_access : 15404342
L1I-total_hit : 10871484
L1I-total_miss : 4532858
L1I-load_access : 10079435
L1I-load_hit : 9840336
L1I-load_miss : 239099
L1I-rfo_access : 0
L1I-rfo_hit : 0
L1I-rfo_miss : 0
L1I-prefetch_access : 5324907
L1I-prefetch_hit : 1031148
L1I-prefetch_miss : 4293759
L1I-writeback_access : 0
L1I-writeback_hit : 0
L1I-writeback_miss : 0
L1I-prefetch_requested : 5497186
L1I-prefetch_issued : 5497161
L1I-prefetch_useful : 3041502
L1I-prefetch_useless : 1252221
L1I-Avg_miss_latency : 17.171

L2C TOTAL     ACCESS:    9682509  HIT:    7813630  MISS:    1868879
L2C LOAD      ACCESS:     714172  HIT:     442201  MISS:     271971
L2C RFO       ACCESS:     951759  HIT:      19278  MISS:     932481
L2C PREFETCH  ACCESS:    6846544  HIT:    6186414  MISS:     660130
L2C WRITEBACK ACCESS:    1170034  HIT:    1165737  MISS:       4297
L2C PREFETCH  REQUESTED:    7873542  ISSUED:    7853388  USEFUL:      30211  USELESS:     630723
L2C AVERAGE MISS LATENCY: 210.384 cycles
L2C

SHEET
L2C-total_access : 9682509
L2C-total_hit : 7813630
L2C-total_miss : 1868879
L2C-load_access : 714172
L2C-load_hit : 442201
L2C-load_miss : 271971
L2C-rfo_access : 951759
L2C-rfo_hit : 19278
L2C-rfo_miss : 932481
L2C-prefetch_access : 6846544
L2C-prefetch_hit : 6186414
L2C-prefetch_miss : 660130
L2C-writeback_access : 1170034
L2C-writeback_hit : 1165737
L2C-writeback_miss : 4297
L2C-prefetch_requested : 7873542
L2C-prefetch_issued : 7853388
L2C-prefetch_useful : 30211
L2C-prefetch_useless : 630723
L2C-Avg_miss_latency : 210.384

LLC TOTAL     ACCESS:    4580886  HIT:    3102165  MISS:    1478721
LLC LOAD      ACCESS:     271824  HIT:     171753  MISS:     100071
LLC RFO       ACCESS:     932471  HIT:     135230  MISS:     797241
LLC PREFETCH  ACCESS:    2271914  HIT:    1693082  MISS:     578832
LLC WRITEBACK ACCESS:    1104677  HIT:    1102100  MISS:       2577
LLC PREFETCH  REQUESTED:          0  ISSUED:          0  USEFUL:      34305  USELESS:     544487
LLC AVERAGE MISS LATENCY: 280.794 cycles
LLC

SHEET
LLC-total_access : 4580886
LLC-total_hit : 3102165
LLC-total_miss : 1478721
LLC-load_access : 271824
LLC-load_hit : 171753
LLC-load_miss : 100071
LLC-rfo_access : 932471
LLC-rfo_hit : 135230
LLC-rfo_miss : 797241
LLC-prefetch_access : 2271914
LLC-prefetch_hit : 1693082
LLC-prefetch_miss : 578832
LLC-writeback_access : 1104677
LLC-writeback_hit : 1102100
LLC-writeback_miss : 2577
LLC-prefetch_requested : 0
LLC-prefetch_issued : 0
LLC-prefetch_useful : 34305
LLC-prefetch_useless : 544487
LLC-Avg_miss_latency : 280.794

Major fault: 0 Minor fault: 22446
I-Shadow cache 408 bytes
Touched + WorthPF tables 3072 bytes 
MMA filter 174 bytes 
FNL filter 272 bytes 
TOTAL PREFETCHER STORAGE SIZE: 13014 bytes
CPU 0 L1I next line prefetcher final stats

 morteza stats start 

SHEET
fnlfilter_access_cntr : 28661592
iShadow_access_cntr : 42784816
missahead_access_cntr : 6326957
mmafilter_access_cntr : 13005295
touched_access_cntr : 18602871
worthpf_access_cntr : 26305392


morteza stats endCPU 0 L1D next line prefetcher final stats

DRAM Statistics
 CHANNEL 0
 RQ ROW_BUFFER_HIT:     442335  ROW_BUFFER_MISS:    1033506
 DBUS_CONGESTED:    1472863
 WQ ROW_BUFFER_HIT:     245742  ROW_BUFFER_MISS:     655228  FULL:          0

 AVG_CONGESTED_CYCLE: 6

CPU 0 Branch Prediction Accuracy: 99.7114% MPKI: 0.47678 Average ROB Occupancy at Mispredict: 206.291

Branch types
NOT_BRANCH: 41741008 83.482%
BRANCH_DIRECT_JUMP: 458652 0.917304%
BRANCH_INDIRECT: 48282 0.096564%
BRANCH_CONDITIONAL: 5930881 11.8618%
BRANCH_DIRECT_CALL: 744230 1.48846%
BRANCH_INDIRECT_CALL: 166336 0.332672%
BRANCH_RETURN: 910589 1.82118%
BRANCH_OTHER: 0 0%

