Initialize SIGNATURE TABLE
ST_SET: 1
ST_WAY: 256
ST_TAG_BIT: 16
ST_TAG_MASK: ffff

Initialize PATTERN TABLE
PT_SET: 512
PT_WAY: 4
SIG_DELTA_BIT: 7
C_SIG_BIT: 4
C_DELTA_BIT: 4

Initialize PREFETCH FILTER
FILTER_SET: 1024

*** ChampSim Multicore Out-of-Order Simulator ***

Warmup Instructions: 50000000
Simulation Instructions: 50000000
Number of CPUs: 1
LLC sets: 2048
LLC ways: 16
Off-chip DRAM Size: 4096 MB Channels: 1 Width: 64-bit Data Rate: 3200 MT/s

CPU 0 runs /home/mbaradaran/ChampSim/dpc3_traces/spec_gcc_003.champsimtrace.xz
CPU 0 L1I next line prefetcher
CPU 0 L1D next line prefetcher
Heartbeat CPU 0 instructions: 10000001 cycles: 3496369 heartbeat IPC: 2.86011 cumulative IPC: 2.86011 (Simulation time: 0 hr 1 min 21 sec) 
Heartbeat CPU 0 instructions: 20000000 cycles: 6973487 heartbeat IPC: 2.87594 cumulative IPC: 2.86801 (Simulation time: 0 hr 2 min 45 sec) 
Heartbeat CPU 0 instructions: 30000002 cycles: 10422558 heartbeat IPC: 2.89933 cumulative IPC: 2.87837 (Simulation time: 0 hr 3 min 45 sec) 
Heartbeat CPU 0 instructions: 40000000 cycles: 13896014 heartbeat IPC: 2.87898 cumulative IPC: 2.87852 (Simulation time: 0 hr 5 min 6 sec) 
Heartbeat CPU 0 instructions: 50000001 cycles: 17213002 heartbeat IPC: 3.01478 cumulative IPC: 2.90478 (Simulation time: 0 hr 6 min 4 sec) 

Warmup complete CPU 0 instructions: 50000001 cycles: 17213002 (Simulation time: 0 hr 6 min 4 sec) 

Heartbeat CPU 0 instructions: 60000000 cycles: 59096049 heartbeat IPC: 0.23876 cumulative IPC: 0.23876 (Simulation time: 0 hr 8 min 45 sec) 
Heartbeat CPU 0 instructions: 70000000 cycles: 104138439 heartbeat IPC: 0.222013 cumulative IPC: 0.230082 (Simulation time: 0 hr 11 min 47 sec) 
Heartbeat CPU 0 instructions: 80000002 cycles: 149982122 heartbeat IPC: 0.218133 cumulative IPC: 0.225956 (Simulation time: 0 hr 14 min 34 sec) 
Heartbeat CPU 0 instructions: 90000002 cycles: 188712509 heartbeat IPC: 0.258195 cumulative IPC: 0.233237 (Simulation time: 0 hr 16 min 58 sec) 
Heartbeat CPU 0 instructions: 100000000 cycles: 237060028 heartbeat IPC: 0.206836 cumulative IPC: 0.227431 (Simulation time: 0 hr 19 min 52 sec) 
Finished CPU 0 instructions: 50000000 cycles: 219847027 cumulative IPC: 0.227431 (Simulation time: 0 hr 19 min 52 sec) 

ChampSim completed all CPUs

Region of Interest Statistics

CPU 0 cumulative IPC: 0.227431 instructions: 50000000 cycles: 219847027

SHEET
IPC : 0.227431

L1D TOTAL     ACCESS:   17275134  HIT:   11550754  MISS:    5724380
L1D LOAD      ACCESS:    4755746  HIT:    4373064  MISS:     382682
L1D RFO       ACCESS:    8247467  HIT:    3195901  MISS:    5051566
L1D PREFETCH  ACCESS:    4271921  HIT:    3981789  MISS:     290132
L1D WRITEBACK ACCESS:          0  HIT:          0  MISS:          0
L1D PREFETCH  REQUESTED:    4774687  ISSUED:    4718243  USEFUL:     152546  USELESS:     137766
L1D AVERAGE MISS LATENCY: 514.836 cycles
L1D

SHEET
L1D-total_access : 17275134
L1D-total_hit : 11550754
L1D-total_miss : 5724380
L1D-load_access : 4755746
L1D-load_hit : 4373064
L1D-load_miss : 382682
L1D-rfo_access : 8247467
L1D-rfo_hit : 3195901
L1D-rfo_miss : 5051566
L1D-prefetch_access : 4271921
L1D-prefetch_hit : 3981789
L1D-prefetch_miss : 290132
L1D-writeback_access : 0
L1D-writeback_hit : 0
L1D-writeback_miss : 0
L1D-prefetch_requested : 4774687
L1D-prefetch_issued : 4718243
L1D-prefetch_useful : 152546
L1D-prefetch_useless : 137766
L1D-Avg_miss_latency : 514.836

L1I TOTAL     ACCESS:   13138776  HIT:   11238810  MISS:    1899966
L1I LOAD      ACCESS:   11344777  HIT:   10770950  MISS:     573827
L1I RFO       ACCESS:          0  HIT:          0  MISS:          0
L1I PREFETCH  ACCESS:    1793999  HIT:     467860  MISS:    1326139
L1I WRITEBACK ACCESS:          0  HIT:          0  MISS:          0
L1I PREFETCH  REQUESTED:    2038838  ISSUED:    2038538  USEFUL:     645856  USELESS:     680255
L1I AVERAGE MISS LATENCY: 47.2662 cycles
L1I

SHEET
L1I-total_access : 13138776
L1I-total_hit : 11238810
L1I-total_miss : 1899966
L1I-load_access : 11344777
L1I-load_hit : 10770950
L1I-load_miss : 573827
L1I-rfo_access : 0
L1I-rfo_hit : 0
L1I-rfo_miss : 0
L1I-prefetch_access : 1793999
L1I-prefetch_hit : 467860
L1I-prefetch_miss : 1326139
L1I-writeback_access : 0
L1I-writeback_hit : 0
L1I-writeback_miss : 0
L1I-prefetch_requested : 2038838
L1I-prefetch_issued : 2038538
L1I-prefetch_useful : 645856
L1I-prefetch_useless : 680255
L1I-Avg_miss_latency : 47.2662

L2C TOTAL     ACCESS:   13331287  HIT:    7226267  MISS:    6105020
L2C LOAD      ACCESS:     705203  HIT:     444432  MISS:     260771
L2C RFO       ACCESS:    5049903  HIT:       6507  MISS:    5043396
L2C PREFETCH  ACCESS:    2418267  HIT:    1617653  MISS:     800614
L2C WRITEBACK ACCESS:    5157914  HIT:    5157675  MISS:        239
L2C PREFETCH  REQUESTED:    3319893  ISSUED:    3319637  USEFUL:      92010  USELESS:     705459
L2C AVERAGE MISS LATENCY: 482.59 cycles
L2C

SHEET
L2C-total_access : 13331287
L2C-total_hit : 7226267
L2C-total_miss : 6105020
L2C-load_access : 705203
L2C-load_hit : 444432
L2C-load_miss : 260771
L2C-rfo_access : 5049903
L2C-rfo_hit : 6507
L2C-rfo_miss : 5043396
L2C-prefetch_access : 2418267
L2C-prefetch_hit : 1617653
L2C-prefetch_miss : 800614
L2C-writeback_access : 5157914
L2C-writeback_hit : 5157675
L2C-writeback_miss : 239
L2C-prefetch_requested : 3319893
L2C-prefetch_issued : 3319637
L2C-prefetch_useful : 92010
L2C-prefetch_useless : 705459
L2C-Avg_miss_latency : 482.59

LLC TOTAL     ACCESS:   12172127  HIT:    7251765  MISS:    4920362
LLC LOAD      ACCESS:     260740  HIT:     188677  MISS:      72063
LLC RFO       ACCESS:    5043396  HIT:     491915  MISS:    4551481
LLC PREFETCH  ACCESS:    1734170  HIT:    1437352  MISS:     296818
LLC WRITEBACK ACCESS:    5133821  HIT:    5133821  MISS:          0
LLC PREFETCH  REQUESTED:          0  ISSUED:          0  USEFUL:      15392  USELESS:     281423
LLC AVERAGE MISS LATENCY: 570.171 cycles
LLC

SHEET
LLC-total_access : 12172127
LLC-total_hit : 7251765
LLC-total_miss : 4920362
LLC-load_access : 260740
LLC-load_hit : 188677
LLC-load_miss : 72063
LLC-rfo_access : 5043396
LLC-rfo_hit : 491915
LLC-rfo_miss : 4551481
LLC-prefetch_access : 1734170
LLC-prefetch_hit : 1437352
LLC-prefetch_miss : 296818
LLC-writeback_access : 5133821
LLC-writeback_hit : 5133821
LLC-writeback_miss : 0
LLC-prefetch_requested : 0
LLC-prefetch_issued : 0
LLC-prefetch_useful : 15392
LLC-prefetch_useless : 281423
LLC-Avg_miss_latency : 570.171

Major fault: 0 Minor fault: 2819
I-Shadow cache 408 bytes
Touched + WorthPF tables 3072 bytes 
MMA filter 174 bytes 
FNL filter 272 bytes 
TOTAL PREFETCHER STORAGE SIZE: 13014 bytes
CPU 0 L1I next line prefetcher final stats

 morteza stats start 

SHEET
fnlfilter_access_cntr : 11125694
iShadow_access_cntr : 44180400
missahead_access_cntr : 2065899
mmafilter_access_cntr : 2967866
touched_access_cntr : 6690483
worthpf_access_cntr : 11107213


morteza stats endCPU 0 L1D next line prefetcher final stats

DRAM Statistics
 CHANNEL 0
 RQ ROW_BUFFER_HIT:    1499170  ROW_BUFFER_MISS:    3421100
 DBUS_CONGESTED:    8500321
 WQ ROW_BUFFER_HIT:    1221517  ROW_BUFFER_MISS:    3359153  FULL:          0

 AVG_CONGESTED_CYCLE: 6

CPU 0 Branch Prediction Accuracy: 99.665% MPKI: 0.78342 Average ROB Occupancy at Mispredict: 88.0719

Branch types
NOT_BRANCH: 38305861 76.6117%
BRANCH_DIRECT_JUMP: 384281 0.768562%
BRANCH_INDIRECT: 71949 0.143898%
BRANCH_CONDITIONAL: 9879826 19.7597%
BRANCH_DIRECT_CALL: 650586 1.30117%
BRANCH_INDIRECT_CALL: 28456 0.056912%
BRANCH_RETURN: 679046 1.35809%
BRANCH_OTHER: 0 0%

