Initialize SIGNATURE TABLE
ST_SET: 1
ST_WAY: 256
ST_TAG_BIT: 16
ST_TAG_MASK: ffff

Initialize PATTERN TABLE
PT_SET: 512
PT_WAY: 4
SIG_DELTA_BIT: 7
C_SIG_BIT: 4
C_DELTA_BIT: 4

Initialize PREFETCH FILTER
FILTER_SET: 1024

*** ChampSim Multicore Out-of-Order Simulator ***

Warmup Instructions: 50000000
Simulation Instructions: 50000000
Number of CPUs: 1
LLC sets: 2048
LLC ways: 16
Off-chip DRAM Size: 4096 MB Channels: 1 Width: 64-bit Data Rate: 3200 MT/s

CPU 0 runs /home/mbaradaran/ChampSim/dpc3_traces/spec_gcc_002.champsimtrace.xz
CPU 0 L1I next line prefetcher
CPU 0 L1D next line prefetcher
Heartbeat CPU 0 instructions: 10000002 cycles: 3560919 heartbeat IPC: 2.80826 cumulative IPC: 2.80826 (Simulation time: 0 hr 1 min 33 sec) 
Heartbeat CPU 0 instructions: 20000000 cycles: 7144209 heartbeat IPC: 2.79073 cumulative IPC: 2.79947 (Simulation time: 0 hr 2 min 53 sec) 
Heartbeat CPU 0 instructions: 30000000 cycles: 10795018 heartbeat IPC: 2.73912 cumulative IPC: 2.77906 (Simulation time: 0 hr 4 min 3 sec) 
Heartbeat CPU 0 instructions: 40000000 cycles: 14355604 heartbeat IPC: 2.80853 cumulative IPC: 2.78637 (Simulation time: 0 hr 5 min 10 sec) 
Heartbeat CPU 0 instructions: 50000002 cycles: 17825756 heartbeat IPC: 2.88172 cumulative IPC: 2.80493 (Simulation time: 0 hr 6 min 11 sec) 

Warmup complete CPU 0 instructions: 50000002 cycles: 17825756 (Simulation time: 0 hr 6 min 11 sec) 

Heartbeat CPU 0 instructions: 60000001 cycles: 58312410 heartbeat IPC: 0.246995 cumulative IPC: 0.246995 (Simulation time: 0 hr 9 min 17 sec) 
Heartbeat CPU 0 instructions: 70000001 cycles: 90932430 heartbeat IPC: 0.30656 cumulative IPC: 0.273573 (Simulation time: 0 hr 11 min 34 sec) 
Heartbeat CPU 0 instructions: 80000002 cycles: 140694776 heartbeat IPC: 0.200955 cumulative IPC: 0.244162 (Simulation time: 0 hr 14 min 29 sec) 
Heartbeat CPU 0 instructions: 90000001 cycles: 185984894 heartbeat IPC: 0.220799 cumulative IPC: 0.23787 (Simulation time: 0 hr 17 min 12 sec) 
Heartbeat CPU 0 instructions: 100000000 cycles: 218189399 heartbeat IPC: 0.310516 cumulative IPC: 0.249546 (Simulation time: 0 hr 19 min 18 sec) 
Finished CPU 0 instructions: 50000002 cycles: 200363651 cumulative IPC: 0.249546 (Simulation time: 0 hr 19 min 18 sec) 

ChampSim completed all CPUs

Region of Interest Statistics

CPU 0 cumulative IPC: 0.249546 instructions: 50000002 cycles: 200363651

SHEET
IPC : 0.249546

L1D TOTAL     ACCESS:   18584139  HIT:   13350272  MISS:    5233867
L1D LOAD      ACCESS:    6516144  HIT:    5460675  MISS:    1055469
L1D RFO       ACCESS:    7057753  HIT:    3456986  MISS:    3600767
L1D PREFETCH  ACCESS:    5010242  HIT:    4432611  MISS:     577631
L1D WRITEBACK ACCESS:          0  HIT:          0  MISS:          0
L1D PREFETCH  REQUESTED:    6537051  ISSUED:    6470405  USEFUL:     417699  USELESS:     160148
L1D AVERAGE MISS LATENCY: 334.385 cycles
L1D

SHEET
L1D-total_access : 18584139
L1D-total_hit : 13350272
L1D-total_miss : 5233867
L1D-load_access : 6516144
L1D-load_hit : 5460675
L1D-load_miss : 1055469
L1D-rfo_access : 7057753
L1D-rfo_hit : 3456986
L1D-rfo_miss : 3600767
L1D-prefetch_access : 5010242
L1D-prefetch_hit : 4432611
L1D-prefetch_miss : 577631
L1D-writeback_access : 0
L1D-writeback_hit : 0
L1D-writeback_miss : 0
L1D-prefetch_requested : 6537051
L1D-prefetch_issued : 6470405
L1D-prefetch_useful : 417699
L1D-prefetch_useless : 160148
L1D-Avg_miss_latency : 334.385

L1I TOTAL     ACCESS:   13648029  HIT:   12059156  MISS:    1588873
L1I LOAD      ACCESS:   12143221  HIT:   11639952  MISS:     503269
L1I RFO       ACCESS:          0  HIT:          0  MISS:          0
L1I PREFETCH  ACCESS:    1504808  HIT:     419204  MISS:    1085604
L1I WRITEBACK ACCESS:          0  HIT:          0  MISS:          0
L1I PREFETCH  REQUESTED:    1715957  ISSUED:    1715834  USEFUL:     538649  USELESS:     546985
L1I AVERAGE MISS LATENCY: 47.7353 cycles
L1I

SHEET
L1I-total_access : 13648029
L1I-total_hit : 12059156
L1I-total_miss : 1588873
L1I-load_access : 12143221
L1I-load_hit : 11639952
L1I-load_miss : 503269
L1I-rfo_access : 0
L1I-rfo_hit : 0
L1I-rfo_miss : 0
L1I-prefetch_access : 1504808
L1I-prefetch_hit : 419204
L1I-prefetch_miss : 1085604
L1I-writeback_access : 0
L1I-writeback_hit : 0
L1I-writeback_miss : 0
L1I-prefetch_requested : 1715957
L1I-prefetch_issued : 1715834
L1I-prefetch_useful : 538649
L1I-prefetch_useless : 546985
L1I-Avg_miss_latency : 47.7353

L2C TOTAL     ACCESS:   11109307  HIT:    5768920  MISS:    5340387
L2C LOAD      ACCESS:     693918  HIT:     470384  MISS:     223534
L2C RFO       ACCESS:    3599173  HIT:      12535  MISS:    3586638
L2C PREFETCH  ACCESS:    3090675  HIT:    1560587  MISS:    1530088
L2C WRITEBACK ACCESS:    3725541  HIT:    3725414  MISS:        127
L2C PREFETCH  REQUESTED:    3951764  ISSUED:    3951705  USEFUL:      69090  USELESS:    1461230
L2C AVERAGE MISS LATENCY: 344.119 cycles
L2C

SHEET
L2C-total_access : 11109307
L2C-total_hit : 5768920
L2C-total_miss : 5340387
L2C-load_access : 693918
L2C-load_hit : 470384
L2C-load_miss : 223534
L2C-rfo_access : 3599173
L2C-rfo_hit : 12535
L2C-rfo_miss : 3586638
L2C-prefetch_access : 3090675
L2C-prefetch_hit : 1560587
L2C-prefetch_miss : 1530088
L2C-writeback_access : 3725541
L2C-writeback_hit : 3725414
L2C-writeback_miss : 127
L2C-prefetch_requested : 3951764
L2C-prefetch_issued : 3951705
L2C-prefetch_useful : 69090
L2C-prefetch_useless : 1461230
L2C-Avg_miss_latency : 344.119

LLC TOTAL     ACCESS:   10099442  HIT:    6209732  MISS:    3889710
LLC LOAD      ACCESS:     223327  HIT:     128922  MISS:      94405
LLC RFO       ACCESS:    3586639  HIT:     584510  MISS:    3002129
LLC PREFETCH  ACCESS:    2623416  HIT:    1830240  MISS:     793176
LLC WRITEBACK ACCESS:    3666060  HIT:    3666060  MISS:          0
LLC PREFETCH  REQUESTED:          0  ISSUED:          0  USEFUL:     146091  USELESS:     642408
LLC AVERAGE MISS LATENCY: 453.358 cycles
LLC

SHEET
LLC-total_access : 10099442
LLC-total_hit : 6209732
LLC-total_miss : 3889710
LLC-load_access : 223327
LLC-load_hit : 128922
LLC-load_miss : 94405
LLC-rfo_access : 3586640
LLC-rfo_hit : 584510
LLC-rfo_miss : 3002130
LLC-prefetch_access : 2623416
LLC-prefetch_hit : 1830240
LLC-prefetch_miss : 793176
LLC-writeback_access : 3666060
LLC-writeback_hit : 3666060
LLC-writeback_miss : 0
LLC-prefetch_requested : 0
LLC-prefetch_issued : 0
LLC-prefetch_useful : 146091
LLC-prefetch_useless : 642408
LLC-Avg_miss_latency : 453.358

Major fault: 0 Minor fault: 4154
I-Shadow cache 408 bytes
Touched + WorthPF tables 3072 bytes 
MMA filter 174 bytes 
FNL filter 272 bytes 
TOTAL PREFETCHER STORAGE SIZE: 13014 bytes
CPU 0 L1I next line prefetcher final stats

 morteza stats start 

SHEET
fnlfilter_access_cntr : 9654398
iShadow_access_cntr : 47314786
missahead_access_cntr : 1783716
mmafilter_access_cntr : 2471314
touched_access_cntr : 5845962
worthpf_access_cntr : 9655474


morteza stats endCPU 0 L1D next line prefetcher final stats

DRAM Statistics
 CHANNEL 0
 RQ ROW_BUFFER_HIT:    1027438  ROW_BUFFER_MISS:    2859694
 DBUS_CONGESTED:    5577522
 WQ ROW_BUFFER_HIT:     939863  ROW_BUFFER_MISS:    2237761  FULL:          0

 AVG_CONGESTED_CYCLE: 6

CPU 0 Branch Prediction Accuracy: 99.5987% MPKI: 0.82446 Average ROB Occupancy at Mispredict: 102.896

Branch types
NOT_BRANCH: 39726805 79.4536%
BRANCH_DIRECT_JUMP: 391438 0.782876%
BRANCH_INDIRECT: 62076 0.124152%
BRANCH_CONDITIONAL: 8421541 16.8431%
BRANCH_DIRECT_CALL: 672962 1.34592%
BRANCH_INDIRECT_CALL: 26115 0.05223%
BRANCH_RETURN: 699082 1.39816%
BRANCH_OTHER: 0 0%

