Initialize SIGNATURE TABLE
ST_SET: 1
ST_WAY: 256
ST_TAG_BIT: 16
ST_TAG_MASK: ffff

Initialize PATTERN TABLE
PT_SET: 512
PT_WAY: 4
SIG_DELTA_BIT: 7
C_SIG_BIT: 4
C_DELTA_BIT: 4

Initialize PREFETCH FILTER
FILTER_SET: 1024

*** ChampSim Multicore Out-of-Order Simulator ***

Warmup Instructions: 50000000
Simulation Instructions: 50000000
Number of CPUs: 1
LLC sets: 2048
LLC ways: 16
Off-chip DRAM Size: 4096 MB Channels: 1 Width: 64-bit Data Rate: 3200 MT/s

CPU 0 runs /home/mbaradaran/ChampSim/dpc3_traces/spec_gobmk_001.champsimtrace.xz
CPU 0 L1I next line prefetcher
CPU 0 L1D next line prefetcher
Heartbeat CPU 0 instructions: 10000003 cycles: 3508683 heartbeat IPC: 2.85007 cumulative IPC: 2.85007 (Simulation time: 0 hr 1 min 20 sec) 
Heartbeat CPU 0 instructions: 20000002 cycles: 6989640 heartbeat IPC: 2.87277 cumulative IPC: 2.86138 (Simulation time: 0 hr 2 min 49 sec) 
Heartbeat CPU 0 instructions: 30000002 cycles: 10509192 heartbeat IPC: 2.84127 cumulative IPC: 2.85464 (Simulation time: 0 hr 4 min 25 sec) 
Heartbeat CPU 0 instructions: 40000001 cycles: 14029004 heartbeat IPC: 2.84106 cumulative IPC: 2.85124 (Simulation time: 0 hr 5 min 32 sec) 
Heartbeat CPU 0 instructions: 50000001 cycles: 17569468 heartbeat IPC: 2.82449 cumulative IPC: 2.84585 (Simulation time: 0 hr 6 min 43 sec) 

Warmup complete CPU 0 instructions: 50000001 cycles: 17569468 (Simulation time: 0 hr 6 min 43 sec) 

Heartbeat CPU 0 instructions: 60000000 cycles: 27438643 heartbeat IPC: 1.01326 cumulative IPC: 1.01326 (Simulation time: 0 hr 7 min 51 sec) 
Heartbeat CPU 0 instructions: 70000002 cycles: 37095626 heartbeat IPC: 1.03552 cumulative IPC: 1.02427 (Simulation time: 0 hr 8 min 41 sec) 
Heartbeat CPU 0 instructions: 80000003 cycles: 46871409 heartbeat IPC: 1.02294 cumulative IPC: 1.02382 (Simulation time: 0 hr 9 min 37 sec) 
Heartbeat CPU 0 instructions: 90000001 cycles: 56114650 heartbeat IPC: 1.08187 cumulative IPC: 1.03774 (Simulation time: 0 hr 10 min 25 sec) 
Heartbeat CPU 0 instructions: 100000000 cycles: 65920247 heartbeat IPC: 1.01983 cumulative IPC: 1.03411 (Simulation time: 0 hr 11 min 12 sec) 
Finished CPU 0 instructions: 50000000 cycles: 48350784 cumulative IPC: 1.03411 (Simulation time: 0 hr 11 min 12 sec) 

ChampSim completed all CPUs

Region of Interest Statistics

CPU 0 cumulative IPC: 1.03411 instructions: 50000000 cycles: 48350784

SHEET
IPC : 1.03411

L1D TOTAL     ACCESS:   18327528  HIT:   17947857  MISS:     379671
L1D LOAD      ACCESS:    7377405  HIT:    7243830  MISS:     133575
L1D RFO       ACCESS:    3711091  HIT:    3606742  MISS:     104349
L1D PREFETCH  ACCESS:    7239032  HIT:    7097285  MISS:     141747
L1D WRITEBACK ACCESS:          0  HIT:          0  MISS:          0
L1D PREFETCH  REQUESTED:    7382357  ISSUED:    7299077  USEFUL:      47004  USELESS:      94749
L1D AVERAGE MISS LATENCY: 34.0828 cycles
L1D

SHEET
L1D-total_access : 18327528
L1D-total_hit : 17947857
L1D-total_miss : 379671
L1D-load_access : 7377405
L1D-load_hit : 7243830
L1D-load_miss : 133575
L1D-rfo_access : 3711091
L1D-rfo_hit : 3606742
L1D-rfo_miss : 104349
L1D-prefetch_access : 7239032
L1D-prefetch_hit : 7097285
L1D-prefetch_miss : 141747
L1D-writeback_access : 0
L1D-writeback_hit : 0
L1D-writeback_miss : 0
L1D-prefetch_requested : 7382357
L1D-prefetch_issued : 7299077
L1D-prefetch_useful : 47004
L1D-prefetch_useless : 94749
L1D-Avg_miss_latency : 34.0828

L1I TOTAL     ACCESS:   11625145  HIT:    9173599  MISS:    2451546
L1I LOAD      ACCESS:    9060940  HIT:    8259928  MISS:     801012
L1I RFO       ACCESS:          0  HIT:          0  MISS:          0
L1I PREFETCH  ACCESS:    2564205  HIT:     913671  MISS:    1650534
L1I WRITEBACK ACCESS:          0  HIT:          0  MISS:          0
L1I PREFETCH  REQUESTED:    2792130  ISSUED:    2792130  USEFUL:     792349  USELESS:     858153
L1I AVERAGE MISS LATENCY: 14.3546 cycles
L1I

SHEET
L1I-total_access : 11625145
L1I-total_hit : 9173599
L1I-total_miss : 2451546
L1I-load_access : 9060940
L1I-load_hit : 8259928
L1I-load_miss : 801012
L1I-rfo_access : 0
L1I-rfo_hit : 0
L1I-rfo_miss : 0
L1I-prefetch_access : 2564205
L1I-prefetch_hit : 913671
L1I-prefetch_miss : 1650534
L1I-writeback_access : 0
L1I-writeback_hit : 0
L1I-writeback_miss : 0
L1I-prefetch_requested : 2792130
L1I-prefetch_issued : 2792130
L1I-prefetch_useful : 792349
L1I-prefetch_useless : 858153
L1I-Avg_miss_latency : 14.3546

L2C TOTAL     ACCESS:    4469400  HIT:    4344304  MISS:     125096
L2C LOAD      ACCESS:     848902  HIT:     811564  MISS:      37338
L2C RFO       ACCESS:     104016  HIT:      70281  MISS:      33735
L2C PREFETCH  ACCESS:    3377172  HIT:    3323205  MISS:      53967
L2C WRITEBACK ACCESS:     139310  HIT:     139254  MISS:         56
L2C PREFETCH  REQUESTED:    3816124  ISSUED:    3815838  USEFUL:       5273  USELESS:      49053
L2C AVERAGE MISS LATENCY: 66.9683 cycles
L2C

SHEET
L2C-total_access : 4469400
L2C-total_hit : 4344304
L2C-total_miss : 125096
L2C-load_access : 848902
L2C-load_hit : 811564
L2C-load_miss : 37338
L2C-rfo_access : 104016
L2C-rfo_hit : 70281
L2C-rfo_miss : 33735
L2C-prefetch_access : 3377172
L2C-prefetch_hit : 3323205
L2C-prefetch_miss : 53967
L2C-writeback_access : 139310
L2C-writeback_hit : 139254
L2C-writeback_miss : 56
L2C-prefetch_requested : 3816124
L2C-prefetch_issued : 3815838
L2C-prefetch_useful : 5273
L2C-prefetch_useless : 49053
L2C-Avg_miss_latency : 66.9683

LLC TOTAL     ACCESS:     357981  HIT:     314074  MISS:      43907
LLC LOAD      ACCESS:      37335  HIT:      28972  MISS:       8363
LLC RFO       ACCESS:      33735  HIT:      25476  MISS:       8259
LLC PREFETCH  ACCESS:     242450  HIT:     215513  MISS:      26937
LLC WRITEBACK ACCESS:      44461  HIT:      44113  MISS:        348
LLC PREFETCH  REQUESTED:          0  ISSUED:          0  USEFUL:       1579  USELESS:      23483
LLC AVERAGE MISS LATENCY: 178.692 cycles
LLC

SHEET
LLC-total_access : 357981
LLC-total_hit : 314074
LLC-total_miss : 43907
LLC-load_access : 37335
LLC-load_hit : 28972
LLC-load_miss : 8363
LLC-rfo_access : 33735
LLC-rfo_hit : 25476
LLC-rfo_miss : 8259
LLC-prefetch_access : 242450
LLC-prefetch_hit : 215513
LLC-prefetch_miss : 26937
LLC-writeback_access : 44461
LLC-writeback_hit : 44113
LLC-writeback_miss : 348
LLC-prefetch_requested : 0
LLC-prefetch_issued : 0
LLC-prefetch_useful : 1579
LLC-prefetch_useless : 23483
LLC-Avg_miss_latency : 178.692

Major fault: 0 Minor fault: 4160
I-Shadow cache 408 bytes
Touched + WorthPF tables 3072 bytes 
MMA filter 174 bytes 
FNL filter 272 bytes 
TOTAL PREFETCHER STORAGE SIZE: 13014 bytes
CPU 0 L1I next line prefetcher final stats

 morteza stats start 

SHEET
fnlfilter_access_cntr : 16281089
iShadow_access_cntr : 41522756
missahead_access_cntr : 2843754
mmafilter_access_cntr : 3232855
touched_access_cntr : 8509062
worthpf_access_cntr : 16210376


morteza stats endCPU 0 L1D next line prefetcher final stats

DRAM Statistics
 CHANNEL 0
 RQ ROW_BUFFER_HIT:       5964  ROW_BUFFER_MISS:      37593
 DBUS_CONGESTED:      29345
 WQ ROW_BUFFER_HIT:       1826  ROW_BUFFER_MISS:      16812  FULL:          0

 AVG_CONGESTED_CYCLE: 5

CPU 0 Branch Prediction Accuracy: 94.7729% MPKI: 9.72684 Average ROB Occupancy at Mispredict: 46.9711

Branch types
NOT_BRANCH: 40695362 81.3907%
BRANCH_DIRECT_JUMP: 422107 0.844214%
BRANCH_INDIRECT: 65 0.00013%
BRANCH_CONDITIONAL: 8105002 16.21%
BRANCH_DIRECT_CALL: 374912 0.749824%
BRANCH_INDIRECT_CALL: 13657 0.027314%
BRANCH_RETURN: 388556 0.777112%
BRANCH_OTHER: 0 0%

