Initialize SIGNATURE TABLE
ST_SET: 1
ST_WAY: 256
ST_TAG_BIT: 16
ST_TAG_MASK: ffff

Initialize PATTERN TABLE
PT_SET: 512
PT_WAY: 4
SIG_DELTA_BIT: 7
C_SIG_BIT: 4
C_DELTA_BIT: 4

Initialize PREFETCH FILTER
FILTER_SET: 1024

*** ChampSim Multicore Out-of-Order Simulator ***

Warmup Instructions: 50000000
Simulation Instructions: 50000000
Number of CPUs: 1
LLC sets: 2048
LLC ways: 16
Off-chip DRAM Size: 4096 MB Channels: 1 Width: 64-bit Data Rate: 3200 MT/s

CPU 0 runs /home/mbaradaran/ChampSim/dpc3_traces/spec_gcc_001.champsimtrace.xz
CPU 0 L1I next line prefetcher
CPU 0 L1D next line prefetcher
Heartbeat CPU 0 instructions: 10000003 cycles: 3220294 heartbeat IPC: 3.10531 cumulative IPC: 3.10531 (Simulation time: 0 hr 1 min 25 sec) 
Heartbeat CPU 0 instructions: 20000002 cycles: 6466239 heartbeat IPC: 3.08077 cumulative IPC: 3.09299 (Simulation time: 0 hr 2 min 53 sec) 
Heartbeat CPU 0 instructions: 30000000 cycles: 9669695 heartbeat IPC: 3.12163 cumulative IPC: 3.10248 (Simulation time: 0 hr 4 min 10 sec) 
Heartbeat CPU 0 instructions: 40000001 cycles: 12912648 heartbeat IPC: 3.08361 cumulative IPC: 3.09774 (Simulation time: 0 hr 5 min 18 sec) 
Heartbeat CPU 0 instructions: 50000001 cycles: 16154615 heartbeat IPC: 3.08455 cumulative IPC: 3.09509 (Simulation time: 0 hr 6 min 45 sec) 

Warmup complete CPU 0 instructions: 50000001 cycles: 16154615 (Simulation time: 0 hr 6 min 45 sec) 

Heartbeat CPU 0 instructions: 60000003 cycles: 24630267 heartbeat IPC: 1.17985 cumulative IPC: 1.17985 (Simulation time: 0 hr 7 min 55 sec) 
Heartbeat CPU 0 instructions: 70000002 cycles: 33125118 heartbeat IPC: 1.17718 cumulative IPC: 1.17852 (Simulation time: 0 hr 9 min 27 sec) 
Heartbeat CPU 0 instructions: 80000000 cycles: 41248836 heartbeat IPC: 1.23096 cumulative IPC: 1.19549 (Simulation time: 0 hr 10 min 29 sec) 
Heartbeat CPU 0 instructions: 90000001 cycles: 49580456 heartbeat IPC: 1.20025 cumulative IPC: 1.19668 (Simulation time: 0 hr 11 min 30 sec) 
Heartbeat CPU 0 instructions: 100000000 cycles: 58309159 heartbeat IPC: 1.14565 cumulative IPC: 1.18611 (Simulation time: 0 hr 12 min 34 sec) 
Finished CPU 0 instructions: 50000000 cycles: 42154548 cumulative IPC: 1.18611 (Simulation time: 0 hr 12 min 34 sec) 

ChampSim completed all CPUs

Region of Interest Statistics

CPU 0 cumulative IPC: 1.18611 instructions: 50000000 cycles: 42154548

SHEET
IPC : 1.18611

L1D TOTAL     ACCESS:   19769562  HIT:   18664354  MISS:    1105208
L1D LOAD      ACCESS:    7450292  HIT:    6971299  MISS:     478993
L1D RFO       ACCESS:    5136248  HIT:    5056821  MISS:      79427
L1D PREFETCH  ACCESS:    7183022  HIT:    6636234  MISS:     546788
L1D WRITEBACK ACCESS:          0  HIT:          0  MISS:          0
L1D PREFETCH  REQUESTED:    7495021  ISSUED:    7389658  USEFUL:     276524  USELESS:     270275
L1D AVERAGE MISS LATENCY: 25.9396 cycles
L1D

SHEET
L1D-total_access : 19769562
L1D-total_hit : 18664354
L1D-total_miss : 1105208
L1D-load_access : 7450292
L1D-load_hit : 6971299
L1D-load_miss : 478993
L1D-rfo_access : 5136248
L1D-rfo_hit : 5056821
L1D-rfo_miss : 79427
L1D-prefetch_access : 7183022
L1D-prefetch_hit : 6636234
L1D-prefetch_miss : 546788
L1D-writeback_access : 0
L1D-writeback_hit : 0
L1D-writeback_miss : 0
L1D-prefetch_requested : 7495021
L1D-prefetch_issued : 7389658
L1D-prefetch_useful : 276524
L1D-prefetch_useless : 270275
L1D-Avg_miss_latency : 25.9396

L1I TOTAL     ACCESS:   10869045  HIT:    9345602  MISS:    1523443
L1I LOAD      ACCESS:    9404928  HIT:    8732432  MISS:     672496
L1I RFO       ACCESS:          0  HIT:          0  MISS:          0
L1I PREFETCH  ACCESS:    1464117  HIT:     613170  MISS:     850947
L1I WRITEBACK ACCESS:          0  HIT:          0  MISS:          0
L1I PREFETCH  REQUESTED:    1608534  ISSUED:    1608527  USEFUL:     454391  USELESS:     396584
L1I AVERAGE MISS LATENCY: 17.0776 cycles
L1I

SHEET
L1I-total_access : 10869045
L1I-total_hit : 9345602
L1I-total_miss : 1523443
L1I-load_access : 9404928
L1I-load_hit : 8732432
L1I-load_miss : 672496
L1I-rfo_access : 0
L1I-rfo_hit : 0
L1I-rfo_miss : 0
L1I-prefetch_access : 1464117
L1I-prefetch_hit : 613170
L1I-prefetch_miss : 850947
L1I-writeback_access : 0
L1I-writeback_hit : 0
L1I-writeback_miss : 0
L1I-prefetch_requested : 1608534
L1I-prefetch_issued : 1608527
L1I-prefetch_useful : 454391
L1I-prefetch_useless : 396584
L1I-Avg_miss_latency : 17.0776

L2C TOTAL     ACCESS:    4316198  HIT:    4043571  MISS:     272627
L2C LOAD      ACCESS:    1090144  HIT:    1002127  MISS:      88017
L2C RFO       ACCESS:      75143  HIT:      35943  MISS:      39200
L2C PREFETCH  ACCESS:    2897151  HIT:    2752361  MISS:     144790
L2C WRITEBACK ACCESS:     253760  HIT:     253140  MISS:        620
L2C PREFETCH  REQUESTED:    3168470  ISSUED:    3168281  USEFUL:      39262  USELESS:     105356
L2C AVERAGE MISS LATENCY: 65.731 cycles
L2C

SHEET
L2C-total_access : 4316198
L2C-total_hit : 4043571
L2C-total_miss : 272627
L2C-load_access : 1090144
L2C-load_hit : 1002127
L2C-load_miss : 88017
L2C-rfo_access : 75143
L2C-rfo_hit : 35943
L2C-rfo_miss : 39200
L2C-prefetch_access : 2897151
L2C-prefetch_hit : 2752361
L2C-prefetch_miss : 144790
L2C-writeback_access : 253760
L2C-writeback_hit : 253140
L2C-writeback_miss : 620
L2C-prefetch_requested : 3168470
L2C-prefetch_issued : 3168281
L2C-prefetch_useful : 39262
L2C-prefetch_useless : 105356
L2C-Avg_miss_latency : 65.731

LLC TOTAL     ACCESS:     782246  HIT:     701524  MISS:      80722
LLC LOAD      ACCESS:      87807  HIT:      78748  MISS:       9059
LLC RFO       ACCESS:      39200  HIT:      18444  MISS:      20756
LLC PREFETCH  ACCESS:     558293  HIT:     508396  MISS:      49897
LLC WRITEBACK ACCESS:      96946  HIT:      95936  MISS:       1010
LLC PREFETCH  REQUESTED:          0  ISSUED:          0  USEFUL:      11371  USELESS:      42748
LLC AVERAGE MISS LATENCY: 186.347 cycles
LLC

SHEET
LLC-total_access : 782246
LLC-total_hit : 701524
LLC-total_miss : 80722
LLC-load_access : 87807
LLC-load_hit : 78748
LLC-load_miss : 9059
LLC-rfo_access : 39200
LLC-rfo_hit : 18444
LLC-rfo_miss : 20756
LLC-prefetch_access : 558293
LLC-prefetch_hit : 508396
LLC-prefetch_miss : 49897
LLC-writeback_access : 96946
LLC-writeback_hit : 95936
LLC-writeback_miss : 1010
LLC-prefetch_requested : 0
LLC-prefetch_issued : 0
LLC-prefetch_useful : 11371
LLC-prefetch_useless : 42748
LLC-Avg_miss_latency : 186.347

Major fault: 0 Minor fault: 6879
I-Shadow cache 408 bytes
Touched + WorthPF tables 3072 bytes 
MMA filter 174 bytes 
FNL filter 272 bytes 
TOTAL PREFETCHER STORAGE SIZE: 13014 bytes
CPU 0 L1I next line prefetcher final stats

 morteza stats start 

SHEET
fnlfilter_access_cntr : 11335352
iShadow_access_cntr : 42059824
missahead_access_cntr : 2077022
mmafilter_access_cntr : 2558088
touched_access_cntr : 7137705
worthpf_access_cntr : 11543866


morteza stats endCPU 0 L1D next line prefetcher final stats

DRAM Statistics
 CHANNEL 0
 RQ ROW_BUFFER_HIT:      22094  ROW_BUFFER_MISS:      57617
 DBUS_CONGESTED:      47384
 WQ ROW_BUFFER_HIT:       3813  ROW_BUFFER_MISS:      24750  FULL:          0

 AVG_CONGESTED_CYCLE: 6

CPU 0 Branch Prediction Accuracy: 95.8872% MPKI: 9.67286 Average ROB Occupancy at Mispredict: 55.6691

Branch types
NOT_BRANCH: 38240102 76.4802%
BRANCH_DIRECT_JUMP: 653296 1.30659%
BRANCH_INDIRECT: 37098 0.074196%
BRANCH_CONDITIONAL: 8897819 17.7956%
BRANCH_DIRECT_CALL: 992620 1.98524%
BRANCH_INDIRECT_CALL: 93046 0.186092%
BRANCH_RETURN: 1085674 2.17135%
BRANCH_OTHER: 0 0%

