Initialize SIGNATURE TABLE
ST_SET: 1
ST_WAY: 256
ST_TAG_BIT: 16
ST_TAG_MASK: ffff

Initialize PATTERN TABLE
PT_SET: 512
PT_WAY: 4
SIG_DELTA_BIT: 7
C_SIG_BIT: 4
C_DELTA_BIT: 4

Initialize PREFETCH FILTER
FILTER_SET: 1024

*** ChampSim Multicore Out-of-Order Simulator ***

Warmup Instructions: 50000000
Simulation Instructions: 50000000
Number of CPUs: 1
LLC sets: 2048
LLC ways: 16
Off-chip DRAM Size: 4096 MB Channels: 1 Width: 64-bit Data Rate: 3200 MT/s

CPU 0 runs /home/mbaradaran/ChampSim/dpc3_traces/client_007.champsimtrace.xz
CPU 0 L1D next line prefetcher
Heartbeat CPU 0 instructions: 10000001 cycles: 3643011 heartbeat IPC: 2.74498 cumulative IPC: 2.74498 (Simulation time: 0 hr 1 min 33 sec) 
Heartbeat CPU 0 instructions: 20000003 cycles: 7035390 heartbeat IPC: 2.94778 cumulative IPC: 2.84277 (Simulation time: 0 hr 3 min 15 sec) 
Heartbeat CPU 0 instructions: 30000000 cycles: 10907055 heartbeat IPC: 2.58287 cumulative IPC: 2.75051 (Simulation time: 0 hr 5 min 9 sec) 
Heartbeat CPU 0 instructions: 40000003 cycles: 15067538 heartbeat IPC: 2.40357 cumulative IPC: 2.65471 (Simulation time: 0 hr 7 min 5 sec) 
Heartbeat CPU 0 instructions: 50000002 cycles: 18474421 heartbeat IPC: 2.93523 cumulative IPC: 2.70644 (Simulation time: 0 hr 8 min 43 sec) 

Warmup complete CPU 0 instructions: 50000002 cycles: 18474421 (Simulation time: 0 hr 8 min 43 sec) 

Heartbeat CPU 0 instructions: 60000003 cycles: 25459136 heartbeat IPC: 1.4317 cumulative IPC: 1.4317 (Simulation time: 0 hr 10 min 34 sec) 
Heartbeat CPU 0 instructions: 70000003 cycles: 34431025 heartbeat IPC: 1.11459 cumulative IPC: 1.2534 (Simulation time: 0 hr 12 min 24 sec) 
Heartbeat CPU 0 instructions: 80000002 cycles: 39809017 heartbeat IPC: 1.85943 cumulative IPC: 1.40617 (Simulation time: 0 hr 13 min 42 sec) 
Heartbeat CPU 0 instructions: 90000002 cycles: 47586389 heartbeat IPC: 1.28578 cumulative IPC: 1.37401 (Simulation time: 0 hr 15 min 24 sec) 
Heartbeat CPU 0 instructions: 100000002 cycles: 56757879 heartbeat IPC: 1.09034 cumulative IPC: 1.30605 (Simulation time: 0 hr 17 min 4 sec) 
Finished CPU 0 instructions: 50000000 cycles: 38283458 cumulative IPC: 1.30605 (Simulation time: 0 hr 17 min 4 sec) 

ChampSim completed all CPUs

Region of Interest Statistics

CPU 0 cumulative IPC: 1.30605 instructions: 50000000 cycles: 38283458

SHEET
IPC : 1.30605

L1D TOTAL     ACCESS:   21269464  HIT:   20100336  MISS:    1169128
L1D LOAD      ACCESS:    8404538  HIT:    7865761  MISS:     538777
L1D RFO       ACCESS:    4871066  HIT:    4779998  MISS:      91068
L1D PREFETCH  ACCESS:    7993860  HIT:    7454577  MISS:     539283
L1D WRITEBACK ACCESS:          0  HIT:          0  MISS:          0
L1D PREFETCH  REQUESTED:    8458101  ISSUED:    8214178  USEFUL:     158754  USELESS:     380545
L1D AVERAGE MISS LATENCY: 34.6239 cycles
L1D

SHEET
L1D-total_access : 21269464
L1D-total_hit : 20100336
L1D-total_miss : 1169128
L1D-load_access : 8404538
L1D-load_hit : 7865761
L1D-load_miss : 538777
L1D-rfo_access : 4871066
L1D-rfo_hit : 4779998
L1D-rfo_miss : 91068
L1D-prefetch_access : 7993860
L1D-prefetch_hit : 7454577
L1D-prefetch_miss : 539283
L1D-writeback_access : 0
L1D-writeback_hit : 0
L1D-writeback_miss : 0
L1D-prefetch_requested : 8458101
L1D-prefetch_issued : 8214178
L1D-prefetch_useful : 158754
L1D-prefetch_useless : 380545
L1D-Avg_miss_latency : 34.6239

L1I TOTAL     ACCESS:   13796385  HIT:   12250399  MISS:    1545986
L1I LOAD      ACCESS:    9124746  HIT:    9008518  MISS:     116228
L1I RFO       ACCESS:          0  HIT:          0  MISS:          0
L1I PREFETCH  ACCESS:    4671639  HIT:    3241881  MISS:    1429758
L1I WRITEBACK ACCESS:          0  HIT:          0  MISS:          0
L1I PREFETCH  REQUESTED:    4763479  ISSUED:    4757882  USEFUL:    1052958  USELESS:     376741
L1I AVERAGE MISS LATENCY: 15.578 cycles
L1I

SHEET
L1I-total_access : 13796385
L1I-total_hit : 12250399
L1I-total_miss : 1545986
L1I-load_access : 9124746
L1I-load_hit : 9008518
L1I-load_miss : 116228
L1I-rfo_access : 0
L1I-rfo_hit : 0
L1I-rfo_miss : 0
L1I-prefetch_access : 4671639
L1I-prefetch_hit : 3241881
L1I-prefetch_miss : 1429758
L1I-writeback_access : 0
L1I-writeback_hit : 0
L1I-writeback_miss : 0
L1I-prefetch_requested : 4763479
L1I-prefetch_issued : 4757882
L1I-prefetch_useful : 1052958
L1I-prefetch_useless : 376741
L1I-Avg_miss_latency : 15.578

L2C TOTAL     ACCESS:    3832445  HIT:    3615633  MISS:     216812
L2C LOAD      ACCESS:     605575  HIT:     529594  MISS:      75981
L2C RFO       ACCESS:      89524  HIT:      47854  MISS:      41670
L2C PREFETCH  ACCESS:    2809631  HIT:    2710656  MISS:      98975
L2C WRITEBACK ACCESS:     327715  HIT:     327529  MISS:        186
L2C PREFETCH  REQUESTED:    2952385  ISSUED:    2947760  USEFUL:       8579  USELESS:      88743
L2C AVERAGE MISS LATENCY: 120.412 cycles
L2C

SHEET
L2C-total_access : 3832445
L2C-total_hit : 3615633
L2C-total_miss : 216812
L2C-load_access : 605575
L2C-load_hit : 529594
L2C-load_miss : 75981
L2C-rfo_access : 89524
L2C-rfo_hit : 47854
L2C-rfo_miss : 41670
L2C-prefetch_access : 2809631
L2C-prefetch_hit : 2710656
L2C-prefetch_miss : 98975
L2C-writeback_access : 327715
L2C-writeback_hit : 327529
L2C-writeback_miss : 186
L2C-prefetch_requested : 2952385
L2C-prefetch_issued : 2947760
L2C-prefetch_useful : 8579
L2C-prefetch_useless : 88743
L2C-Avg_miss_latency : 120.412

LLC TOTAL     ACCESS:    1081916  HIT:     907879  MISS:     174037
LLC LOAD      ACCESS:      75886  HIT:      37712  MISS:      38174
LLC RFO       ACCESS:      41668  HIT:       7013  MISS:      34655
LLC PREFETCH  ACCESS:     889386  HIT:     788520  MISS:     100866
LLC WRITEBACK ACCESS:      74976  HIT:      74634  MISS:        342
LLC PREFETCH  REQUESTED:          0  ISSUED:          0  USEFUL:      19854  USELESS:      79409
LLC AVERAGE MISS LATENCY: 176.891 cycles
LLC

SHEET
LLC-total_access : 1081916
LLC-total_hit : 907879
LLC-total_miss : 174037
LLC-load_access : 75886
LLC-load_hit : 37712
LLC-load_miss : 38174
LLC-rfo_access : 41668
LLC-rfo_hit : 7013
LLC-rfo_miss : 34655
LLC-prefetch_access : 889386
LLC-prefetch_hit : 788520
LLC-prefetch_miss : 100866
LLC-writeback_access : 74976
LLC-writeback_hit : 74634
LLC-writeback_miss : 342
LLC-prefetch_requested : 0
LLC-prefetch_issued : 0
LLC-prefetch_useful : 19854
LLC-prefetch_useless : 79409
LLC-Avg_miss_latency : 176.891

Major fault: 0 Minor fault: 4405



Printing Logs
morteza: start

SHEET
history_access_cntr : 4349166
index_access_cntr : 1454076
sab_access_cntr : 15101568
compactor_access_cntr : 14806495

morteza: end
CPU 0 L1D next line prefetcher final stats

DRAM Statistics
 CHANNEL 0
 RQ ROW_BUFFER_HIT:      34803  ROW_BUFFER_MISS:     138887
 DBUS_CONGESTED:      94358
 WQ ROW_BUFFER_HIT:      13493  ROW_BUFFER_MISS:      45529  FULL:          0

 AVG_CONGESTED_CYCLE: 5

CPU 0 Branch Prediction Accuracy: 98.8607% MPKI: 1.8623 Average ROB Occupancy at Mispredict: 109.277

Branch types
NOT_BRANCH: 41826773 83.6535%
BRANCH_DIRECT_JUMP: 735330 1.47066%
BRANCH_INDIRECT: 269194 0.538388%
BRANCH_CONDITIONAL: 5957947 11.9159%
BRANCH_DIRECT_CALL: 368758 0.737516%
BRANCH_INDIRECT_CALL: 226975 0.45395%
BRANCH_RETURN: 614696 1.22939%
BRANCH_OTHER: 0 0%

