Initialize SIGNATURE TABLE
ST_SET: 1
ST_WAY: 256
ST_TAG_BIT: 16
ST_TAG_MASK: ffff

Initialize PATTERN TABLE
PT_SET: 512
PT_WAY: 4
SIG_DELTA_BIT: 7
C_SIG_BIT: 4
C_DELTA_BIT: 4

Initialize PREFETCH FILTER
FILTER_SET: 1024

*** ChampSim Multicore Out-of-Order Simulator ***

Warmup Instructions: 50000000
Simulation Instructions: 50000000
Number of CPUs: 1
LLC sets: 2048
LLC ways: 16
Off-chip DRAM Size: 4096 MB Channels: 1 Width: 64-bit Data Rate: 3200 MT/s

CPU 0 runs /home/mbaradaran/ChampSim/dpc3_traces/server_030.champsimtrace.xz
CPU 0 L1D next line prefetcher
Heartbeat CPU 0 instructions: 10000003 cycles: 3505298 heartbeat IPC: 2.85283 cumulative IPC: 2.85283 (Simulation time: 0 hr 1 min 53 sec) 
Heartbeat CPU 0 instructions: 20000003 cycles: 7009795 heartbeat IPC: 2.85348 cumulative IPC: 2.85315 (Simulation time: 0 hr 3 min 48 sec) 
Heartbeat CPU 0 instructions: 30000000 cycles: 10513128 heartbeat IPC: 2.85442 cumulative IPC: 2.85357 (Simulation time: 0 hr 5 min 39 sec) 
Heartbeat CPU 0 instructions: 40000002 cycles: 14016487 heartbeat IPC: 2.8544 cumulative IPC: 2.85378 (Simulation time: 0 hr 7 min 32 sec) 
Heartbeat CPU 0 instructions: 50000002 cycles: 17523368 heartbeat IPC: 2.85154 cumulative IPC: 2.85333 (Simulation time: 0 hr 9 min 24 sec) 

Warmup complete CPU 0 instructions: 50000002 cycles: 17523368 (Simulation time: 0 hr 9 min 24 sec) 

Heartbeat CPU 0 instructions: 60000000 cycles: 24631862 heartbeat IPC: 1.40677 cumulative IPC: 1.40677 (Simulation time: 0 hr 11 min 25 sec) 
Heartbeat CPU 0 instructions: 70000000 cycles: 31789545 heartbeat IPC: 1.3971 cumulative IPC: 1.40192 (Simulation time: 0 hr 13 min 22 sec) 
Heartbeat CPU 0 instructions: 80000001 cycles: 38950976 heartbeat IPC: 1.39637 cumulative IPC: 1.40006 (Simulation time: 0 hr 15 min 20 sec) 
*** Reached end of trace for Core: 0 Repeating trace: /home/mbaradaran/ChampSim/dpc3_traces/server_030.champsimtrace.xz
Heartbeat CPU 0 instructions: 90000002 cycles: 46099274 heartbeat IPC: 1.39893 cumulative IPC: 1.39978 (Simulation time: 0 hr 17 min 19 sec) 
Heartbeat CPU 0 instructions: 100000002 cycles: 53233046 heartbeat IPC: 1.40178 cumulative IPC: 1.40018 (Simulation time: 0 hr 19 min 20 sec) 
Finished CPU 0 instructions: 50000000 cycles: 35709678 cumulative IPC: 1.40018 (Simulation time: 0 hr 19 min 20 sec) 

ChampSim completed all CPUs

Region of Interest Statistics

CPU 0 cumulative IPC: 1.40018 instructions: 50000000 cycles: 35709678

SHEET
IPC : 1.40018

L1D TOTAL     ACCESS:   19286232  HIT:   17210055  MISS:    2076177
L1D LOAD      ACCESS:    6825523  HIT:    5772778  MISS:    1052745
L1D RFO       ACCESS:    6180373  HIT:    5894848  MISS:     285525
L1D PREFETCH  ACCESS:    6280336  HIT:    5542429  MISS:     737907
L1D WRITEBACK ACCESS:          0  HIT:          0  MISS:          0
L1D PREFETCH  REQUESTED:    6875599  ISSUED:    6743958  USEFUL:     182172  USELESS:     555828
L1D AVERAGE MISS LATENCY: 18.4477 cycles
L1D

SHEET
L1D-total_access : 19286232
L1D-total_hit : 17210055
L1D-total_miss : 2076177
L1D-load_access : 6825523
L1D-load_hit : 5772778
L1D-load_miss : 1052745
L1D-rfo_access : 6180373
L1D-rfo_hit : 5894848
L1D-rfo_miss : 285525
L1D-prefetch_access : 6280336
L1D-prefetch_hit : 5542429
L1D-prefetch_miss : 737907
L1D-writeback_access : 0
L1D-writeback_hit : 0
L1D-writeback_miss : 0
L1D-prefetch_requested : 6875599
L1D-prefetch_issued : 6743958
L1D-prefetch_useful : 182172
L1D-prefetch_useless : 555828
L1D-Avg_miss_latency : 18.4477

L1I TOTAL     ACCESS:   16596427  HIT:   12334301  MISS:    4262126
L1I LOAD      ACCESS:    9748094  HIT:    9467577  MISS:     280517
L1I RFO       ACCESS:          0  HIT:          0  MISS:          0
L1I PREFETCH  ACCESS:    6848333  HIT:    2866724  MISS:    3981609
L1I WRITEBACK ACCESS:          0  HIT:          0  MISS:          0
L1I PREFETCH  REQUESTED:    7053018  ISSUED:    7048421  USEFUL:    3195883  USELESS:     785734
L1I AVERAGE MISS LATENCY: 16.2979 cycles
L1I

SHEET
L1I-total_access : 16596427
L1I-total_hit : 12334301
L1I-total_miss : 4262126
L1I-load_access : 9748094
L1I-load_hit : 9467577
L1I-load_miss : 280517
L1I-rfo_access : 0
L1I-rfo_hit : 0
L1I-rfo_miss : 0
L1I-prefetch_access : 6848333
L1I-prefetch_hit : 2866724
L1I-prefetch_miss : 3981609
L1I-writeback_access : 0
L1I-writeback_hit : 0
L1I-writeback_miss : 0
L1I-prefetch_requested : 7053018
L1I-prefetch_issued : 7048421
L1I-prefetch_useful : 3195883
L1I-prefetch_useless : 785734
L1I-Avg_miss_latency : 16.2979

L2C TOTAL     ACCESS:    8805192  HIT:    8184489  MISS:     620703
L2C LOAD      ACCESS:    1045626  HIT:     905465  MISS:     140161
L2C RFO       ACCESS:     283511  HIT:     235723  MISS:      47788
L2C PREFETCH  ACCESS:    6860491  HIT:    6431204  MISS:     429287
L2C WRITEBACK ACCESS:     615564  HIT:     612097  MISS:       3467
L2C PREFETCH  REQUESTED:    7777032  ISSUED:    7763711  USEFUL:      17724  USELESS:     411111
L2C AVERAGE MISS LATENCY: 35.2772 cycles
L2C

SHEET
L2C-total_access : 8805192
L2C-total_hit : 8184489
L2C-total_miss : 620703
L2C-load_access : 1045626
L2C-load_hit : 905465
L2C-load_miss : 140161
L2C-rfo_access : 283511
L2C-rfo_hit : 235723
L2C-rfo_miss : 47788
L2C-prefetch_access : 6860491
L2C-prefetch_hit : 6431204
L2C-prefetch_miss : 429287
L2C-writeback_access : 615564
L2C-writeback_hit : 612097
L2C-writeback_miss : 3467
L2C-prefetch_requested : 7777032
L2C-prefetch_issued : 7763711
L2C-prefetch_useful : 17724
L2C-prefetch_useless : 411111
L2C-Avg_miss_latency : 35.2772

LLC TOTAL     ACCESS:    2506251  HIT:    2482458  MISS:      23793
LLC LOAD      ACCESS:     140010  HIT:     136953  MISS:       3057
LLC RFO       ACCESS:      47784  HIT:      46013  MISS:       1771
LLC PREFETCH  ACCESS:    2222644  HIT:    2203820  MISS:      18824
LLC WRITEBACK ACCESS:      95813  HIT:      95672  MISS:        141
LLC PREFETCH  REQUESTED:          0  ISSUED:          0  USEFUL:        950  USELESS:      16234
LLC AVERAGE MISS LATENCY: 149.21 cycles
LLC

SHEET
LLC-total_access : 2506251
LLC-total_hit : 2482458
LLC-total_miss : 23793
LLC-load_access : 140010
LLC-load_hit : 136953
LLC-load_miss : 3057
LLC-rfo_access : 47784
LLC-rfo_hit : 46013
LLC-rfo_miss : 1771
LLC-prefetch_access : 2222644
LLC-prefetch_hit : 2203820
LLC-prefetch_miss : 18824
LLC-writeback_access : 95813
LLC-writeback_hit : 95672
LLC-writeback_miss : 141
LLC-prefetch_requested : 0
LLC-prefetch_issued : 0
LLC-prefetch_useful : 950
LLC-prefetch_useless : 16234
LLC-Avg_miss_latency : 149.21

Major fault: 0 Minor fault: 2039



Printing Logs
morteza: start

SHEET
history_access_cntr : 7609312
index_access_cntr : 3155047
sab_access_cntr : 18272483
compactor_access_cntr : 17370205

morteza: end
CPU 0 L1D next line prefetcher final stats

DRAM Statistics
 CHANNEL 0
 RQ ROW_BUFFER_HIT:       6866  ROW_BUFFER_MISS:      16786
 DBUS_CONGESTED:       6695
 WQ ROW_BUFFER_HIT:        164  ROW_BUFFER_MISS:       2587  FULL:          0

 AVG_CONGESTED_CYCLE: 5

CPU 0 Branch Prediction Accuracy: 99.8445% MPKI: 0.29148 Average ROB Occupancy at Mispredict: 167.635

Branch types
NOT_BRANCH: 40628081 81.2562%
BRANCH_DIRECT_JUMP: 490941 0.981882%
BRANCH_INDIRECT: 175854 0.351708%
BRANCH_CONDITIONAL: 6321415 12.6428%
BRANCH_DIRECT_CALL: 1002072 2.00414%
BRANCH_INDIRECT_CALL: 189783 0.379566%
BRANCH_RETURN: 1191851 2.3837%
BRANCH_OTHER: 0 0%

