Initialize SIGNATURE TABLE
ST_SET: 1
ST_WAY: 256
ST_TAG_BIT: 16
ST_TAG_MASK: ffff

Initialize PATTERN TABLE
PT_SET: 512
PT_WAY: 4
SIG_DELTA_BIT: 7
C_SIG_BIT: 4
C_DELTA_BIT: 4

Initialize PREFETCH FILTER
FILTER_SET: 1024

*** ChampSim Multicore Out-of-Order Simulator ***

Warmup Instructions: 50000000
Simulation Instructions: 50000000
Number of CPUs: 1
LLC sets: 2048
LLC ways: 16
Off-chip DRAM Size: 4096 MB Channels: 1 Width: 64-bit Data Rate: 3200 MT/s

CPU 0 runs /home/mbaradaran/ChampSim/dpc3_traces/server_018.champsimtrace.xz
CPU 0 L1D next line prefetcher
Heartbeat CPU 0 instructions: 10000003 cycles: 3617924 heartbeat IPC: 2.76402 cumulative IPC: 2.76402 (Simulation time: 0 hr 1 min 54 sec) 
Heartbeat CPU 0 instructions: 20000001 cycles: 7240626 heartbeat IPC: 2.76037 cumulative IPC: 2.76219 (Simulation time: 0 hr 3 min 53 sec) 
Heartbeat CPU 0 instructions: 30000003 cycles: 10717248 heartbeat IPC: 2.87636 cumulative IPC: 2.79923 (Simulation time: 0 hr 5 min 47 sec) 
Heartbeat CPU 0 instructions: 40000000 cycles: 14230056 heartbeat IPC: 2.84672 cumulative IPC: 2.81095 (Simulation time: 0 hr 7 min 38 sec) 
Heartbeat CPU 0 instructions: 50000003 cycles: 17848354 heartbeat IPC: 2.76373 cumulative IPC: 2.80138 (Simulation time: 0 hr 9 min 34 sec) 

Warmup complete CPU 0 instructions: 50000003 cycles: 17848354 (Simulation time: 0 hr 9 min 34 sec) 

Heartbeat CPU 0 instructions: 60000000 cycles: 35159332 heartbeat IPC: 0.577668 cumulative IPC: 0.577668 (Simulation time: 0 hr 12 min 17 sec) 
Heartbeat CPU 0 instructions: 70000001 cycles: 52549886 heartbeat IPC: 0.575025 cumulative IPC: 0.576343 (Simulation time: 0 hr 14 min 55 sec) 
Heartbeat CPU 0 instructions: 80000000 cycles: 69840053 heartbeat IPC: 0.578363 cumulative IPC: 0.577015 (Simulation time: 0 hr 17 min 40 sec) 
Heartbeat CPU 0 instructions: 90000002 cycles: 87150391 heartbeat IPC: 0.57769 cumulative IPC: 0.577184 (Simulation time: 0 hr 20 min 24 sec) 
Heartbeat CPU 0 instructions: 100000001 cycles: 104512917 heartbeat IPC: 0.575953 cumulative IPC: 0.576937 (Simulation time: 0 hr 22 min 56 sec) 
Finished CPU 0 instructions: 50000002 cycles: 86664564 cumulative IPC: 0.576937 (Simulation time: 0 hr 22 min 56 sec) 

ChampSim completed all CPUs

Region of Interest Statistics

CPU 0 cumulative IPC: 0.576937 instructions: 50000002 cycles: 86664564

SHEET
IPC : 0.576937

L1D TOTAL     ACCESS:   18625112  HIT:   16407422  MISS:    2217690
L1D LOAD      ACCESS:    7053336  HIT:    6328299  MISS:     725037
L1D RFO       ACCESS:    5801154  HIT:    4848973  MISS:     952181
L1D PREFETCH  ACCESS:    5770622  HIT:    5230150  MISS:     540472
L1D WRITEBACK ACCESS:          0  HIT:          0  MISS:          0
L1D PREFETCH  REQUESTED:    7096065  ISSUED:    6892212  USEFUL:     200782  USELESS:     339779
L1D AVERAGE MISS LATENCY: 174.397 cycles
L1D

SHEET
L1D-total_access : 18625112
L1D-total_hit : 16407422
L1D-total_miss : 2217690
L1D-load_access : 7053336
L1D-load_hit : 6328299
L1D-load_miss : 725037
L1D-rfo_access : 5801154
L1D-rfo_hit : 4848973
L1D-rfo_miss : 952181
L1D-prefetch_access : 5770622
L1D-prefetch_hit : 5230150
L1D-prefetch_miss : 540472
L1D-writeback_access : 0
L1D-writeback_hit : 0
L1D-writeback_miss : 0
L1D-prefetch_requested : 7096065
L1D-prefetch_issued : 6892212
L1D-prefetch_useful : 200782
L1D-prefetch_useless : 339779
L1D-Avg_miss_latency : 174.397

L1I TOTAL     ACCESS:   15464739  HIT:   12046725  MISS:    3418014
L1I LOAD      ACCESS:   10057331  HIT:    9887143  MISS:     170188
L1I RFO       ACCESS:          0  HIT:          0  MISS:          0
L1I PREFETCH  ACCESS:    5407408  HIT:    2159582  MISS:    3247826
L1I WRITEBACK ACCESS:          0  HIT:          0  MISS:          0
L1I PREFETCH  REQUESTED:    5512483  ISSUED:    5511524  USEFUL:    2983372  USELESS:     264461
L1I AVERAGE MISS LATENCY: 16.291 cycles
L1I

SHEET
L1I-total_access : 15464739
L1I-total_hit : 12046725
L1I-total_miss : 3418014
L1I-load_access : 10057331
L1I-load_hit : 9887143
L1I-load_miss : 170188
L1I-rfo_access : 0
L1I-rfo_hit : 0
L1I-rfo_miss : 0
L1I-prefetch_access : 5407408
L1I-prefetch_hit : 2159582
L1I-prefetch_miss : 3247826
L1I-writeback_access : 0
L1I-writeback_hit : 0
L1I-writeback_miss : 0
L1I-prefetch_requested : 5512483
L1I-prefetch_issued : 5511524
L1I-prefetch_useful : 2983372
L1I-prefetch_useless : 264461
L1I-Avg_miss_latency : 16.291

L2C TOTAL     ACCESS:    8181845  HIT:    6332244  MISS:    1849601
L2C LOAD      ACCESS:     599364  HIT:     331706  MISS:     267658
L2C RFO       ACCESS:     951703  HIT:      19946  MISS:     931757
L2C PREFETCH  ACCESS:    5460803  HIT:    4813291  MISS:     647512
L2C WRITEBACK ACCESS:    1169975  HIT:    1167301  MISS:       2674
L2C PREFETCH  REQUESTED:    5545198  ISSUED:    5541183  USEFUL:      25362  USELESS:     623120
L2C AVERAGE MISS LATENCY: 211.96 cycles
L2C

SHEET
L2C-total_access : 8181845
L2C-total_hit : 6332244
L2C-total_miss : 1849601
L2C-load_access : 599364
L2C-load_hit : 331706
L2C-load_miss : 267658
L2C-rfo_access : 951703
L2C-rfo_hit : 19946
L2C-rfo_miss : 931757
L2C-prefetch_access : 5460803
L2C-prefetch_hit : 4813291
L2C-prefetch_miss : 647512
L2C-writeback_access : 1169975
L2C-writeback_hit : 1167301
L2C-writeback_miss : 2674
L2C-prefetch_requested : 5545198
L2C-prefetch_issued : 5541183
L2C-prefetch_useful : 25362
L2C-prefetch_useless : 623120
L2C-Avg_miss_latency : 211.96

LLC TOTAL     ACCESS:    4279783  HIT:    2839845  MISS:    1439938
LLC LOAD      ACCESS:     267575  HIT:     168289  MISS:      99286
LLC RFO       ACCESS:     931715  HIT:     137867  MISS:     793848
LLC PREFETCH  ACCESS:    1978916  HIT:    1434056  MISS:     544860
LLC WRITEBACK ACCESS:    1101577  HIT:    1099633  MISS:       1944
LLC PREFETCH  REQUESTED:          0  ISSUED:          0  USEFUL:      32091  USELESS:     512845
LLC AVERAGE MISS LATENCY: 278.91 cycles
LLC

SHEET
LLC-total_access : 4279783
LLC-total_hit : 2839845
LLC-total_miss : 1439938
LLC-load_access : 267575
LLC-load_hit : 168289
LLC-load_miss : 99286
LLC-rfo_access : 931715
LLC-rfo_hit : 137867
LLC-rfo_miss : 793848
LLC-prefetch_access : 1978916
LLC-prefetch_hit : 1434056
LLC-prefetch_miss : 544860
LLC-writeback_access : 1101577
LLC-writeback_hit : 1099633
LLC-writeback_miss : 1944
LLC-prefetch_requested : 0
LLC-prefetch_issued : 0
LLC-prefetch_useful : 32091
LLC-prefetch_useless : 512845
LLC-Avg_miss_latency : 278.91

Major fault: 0 Minor fault: 22442



Printing Logs
morteza: start

SHEET
history_access_cntr : 5730780
index_access_cntr : 2453803
sab_access_cntr : 16060255
compactor_access_cntr : 15473085

morteza: end
CPU 0 L1D next line prefetcher final stats

DRAM Statistics
 CHANNEL 0
 RQ ROW_BUFFER_HIT:     406771  ROW_BUFFER_MISS:    1030939
 DBUS_CONGESTED:    1451594
 WQ ROW_BUFFER_HIT:     251356  ROW_BUFFER_MISS:     642009  FULL:          0

 AVG_CONGESTED_CYCLE: 6

CPU 0 Branch Prediction Accuracy: 99.7114% MPKI: 0.47678 Average ROB Occupancy at Mispredict: 208.848

Branch types
NOT_BRANCH: 41741013 83.482%
BRANCH_DIRECT_JUMP: 458652 0.917304%
BRANCH_INDIRECT: 48282 0.096564%
BRANCH_CONDITIONAL: 5930881 11.8618%
BRANCH_DIRECT_CALL: 744230 1.48846%
BRANCH_INDIRECT_CALL: 166336 0.332672%
BRANCH_RETURN: 910589 1.82118%
BRANCH_OTHER: 0 0%

