Initialize SIGNATURE TABLE
ST_SET: 1
ST_WAY: 256
ST_TAG_BIT: 16
ST_TAG_MASK: ffff

Initialize PATTERN TABLE
PT_SET: 512
PT_WAY: 4
SIG_DELTA_BIT: 7
C_SIG_BIT: 4
C_DELTA_BIT: 4

Initialize PREFETCH FILTER
FILTER_SET: 1024

*** ChampSim Multicore Out-of-Order Simulator ***

Warmup Instructions: 50000000
Simulation Instructions: 50000000
Number of CPUs: 1
LLC sets: 2048
LLC ways: 16
Off-chip DRAM Size: 4096 MB Channels: 1 Width: 64-bit Data Rate: 3200 MT/s

CPU 0 runs /home/mbaradaran/ChampSim/dpc3_traces/server_009.champsimtrace.xz
CPU 0 L1D next line prefetcher
Heartbeat CPU 0 instructions: 10000003 cycles: 3196632 heartbeat IPC: 3.12829 cumulative IPC: 3.12829 (Simulation time: 0 hr 1 min 43 sec) 
Heartbeat CPU 0 instructions: 20000001 cycles: 6386478 heartbeat IPC: 3.13495 cumulative IPC: 3.13162 (Simulation time: 0 hr 3 min 21 sec) 
Heartbeat CPU 0 instructions: 30000002 cycles: 9591631 heartbeat IPC: 3.11998 cumulative IPC: 3.12773 (Simulation time: 0 hr 5 min 6 sec) 
Heartbeat CPU 0 instructions: 40000003 cycles: 12792227 heartbeat IPC: 3.12442 cumulative IPC: 3.1269 (Simulation time: 0 hr 6 min 49 sec) 
Heartbeat CPU 0 instructions: 50000000 cycles: 16050382 heartbeat IPC: 3.06922 cumulative IPC: 3.11519 (Simulation time: 0 hr 8 min 31 sec) 

Warmup complete CPU 0 instructions: 50000004 cycles: 16050383 (Simulation time: 0 hr 8 min 31 sec) 

Heartbeat CPU 0 instructions: 60000002 cycles: 32005053 heartbeat IPC: 0.626776 cumulative IPC: 0.626776 (Simulation time: 0 hr 10 min 46 sec) 
Heartbeat CPU 0 instructions: 70000003 cycles: 53379622 heartbeat IPC: 0.467846 cumulative IPC: 0.535773 (Simulation time: 0 hr 13 min 32 sec) 
Heartbeat CPU 0 instructions: 80000000 cycles: 60682886 heartbeat IPC: 1.36925 cumulative IPC: 0.672156 (Simulation time: 0 hr 15 min 6 sec) 
Heartbeat CPU 0 instructions: 90000001 cycles: 68271904 heartbeat IPC: 1.31769 cumulative IPC: 0.765968 (Simulation time: 0 hr 16 min 40 sec) 
Heartbeat CPU 0 instructions: 100000003 cycles: 75542744 heartbeat IPC: 1.37536 cumulative IPC: 0.840444 (Simulation time: 0 hr 18 min 4 sec) 
Finished CPU 0 instructions: 50000003 cycles: 59492362 cumulative IPC: 0.840444 (Simulation time: 0 hr 18 min 4 sec) 

ChampSim completed all CPUs

Region of Interest Statistics

CPU 0 cumulative IPC: 0.840444 instructions: 50000003 cycles: 59492362

SHEET
IPC : 0.840444

L1D TOTAL     ACCESS:   21697707  HIT:   17118067  MISS:    4579640
L1D LOAD      ACCESS:    8663189  HIT:    6383764  MISS:    2279425
L1D RFO       ACCESS:    4583239  HIT:    4478728  MISS:     104511
L1D PREFETCH  ACCESS:    8451279  HIT:    6255575  MISS:    2195704
L1D WRITEBACK ACCESS:          0  HIT:          0  MISS:          0
L1D PREFETCH  REQUESTED:    8695847  ISSUED:    8598276  USEFUL:     107180  USELESS:    2088523
L1D AVERAGE MISS LATENCY: 20.2166 cycles
L1D

SHEET
L1D-total_access : 21697707
L1D-total_hit : 17118067
L1D-total_miss : 4579640
L1D-load_access : 8663189
L1D-load_hit : 6383764
L1D-load_miss : 2279425
L1D-rfo_access : 4583239
L1D-rfo_hit : 4478728
L1D-rfo_miss : 104511
L1D-prefetch_access : 8451279
L1D-prefetch_hit : 6255575
L1D-prefetch_miss : 2195704
L1D-writeback_access : 0
L1D-writeback_hit : 0
L1D-writeback_miss : 0
L1D-prefetch_requested : 8695847
L1D-prefetch_issued : 8598276
L1D-prefetch_useful : 107180
L1D-prefetch_useless : 2088523
L1D-Avg_miss_latency : 20.2166

L1I TOTAL     ACCESS:   16298302  HIT:   14171520  MISS:    2126782
L1I LOAD      ACCESS:   10746072  HIT:   10489990  MISS:     256082
L1I RFO       ACCESS:          0  HIT:          0  MISS:          0
L1I PREFETCH  ACCESS:    5552230  HIT:    3681530  MISS:    1870700
L1I WRITEBACK ACCESS:          0  HIT:          0  MISS:          0
L1I PREFETCH  REQUESTED:    5690597  ISSUED:    5666841  USEFUL:    1315658  USELESS:     555051
L1I AVERAGE MISS LATENCY: 25.3656 cycles
L1I

SHEET
L1I-total_access : 16298302
L1I-total_hit : 14171520
L1I-total_miss : 2126782
L1I-load_access : 10746072
L1I-load_hit : 10489990
L1I-load_miss : 256082
L1I-rfo_access : 0
L1I-rfo_hit : 0
L1I-rfo_miss : 0
L1I-prefetch_access : 5552230
L1I-prefetch_hit : 3681530
L1I-prefetch_miss : 1870700
L1I-writeback_access : 0
L1I-writeback_hit : 0
L1I-writeback_miss : 0
L1I-prefetch_requested : 5690597
L1I-prefetch_issued : 5666841
L1I-prefetch_useful : 1315658
L1I-prefetch_useless : 555051
L1I-Avg_miss_latency : 25.3656

L2C TOTAL     ACCESS:    8580768  HIT:    7575428  MISS:    1005340
L2C LOAD      ACCESS:    2457101  HIT:    2216462  MISS:     240639
L2C RFO       ACCESS:     103556  HIT:      64520  MISS:      39036
L2C PREFETCH  ACCESS:    5763255  HIT:    5038451  MISS:     724804
L2C WRITEBACK ACCESS:     256856  HIT:     255995  MISS:        861
L2C PREFETCH  REQUESTED:    7783880  ISSUED:    7778772  USEFUL:      40649  USELESS:     681342
L2C AVERAGE MISS LATENCY: 46.6489 cycles
L2C

SHEET
L2C-total_access : 8580768
L2C-total_hit : 7575428
L2C-total_miss : 1005340
L2C-load_access : 2457101
L2C-load_hit : 2216462
L2C-load_miss : 240639
L2C-rfo_access : 103556
L2C-rfo_hit : 64520
L2C-rfo_miss : 39036
L2C-prefetch_access : 5763255
L2C-prefetch_hit : 5038451
L2C-prefetch_miss : 724804
L2C-writeback_access : 256856
L2C-writeback_hit : 255995
L2C-writeback_miss : 861
L2C-prefetch_requested : 7783880
L2C-prefetch_issued : 7778772
L2C-prefetch_useful : 40649
L2C-prefetch_useless : 681342
L2C-Avg_miss_latency : 46.6489

LLC TOTAL     ACCESS:    2516324  HIT:    2375964  MISS:     140360
LLC LOAD      ACCESS:     239574  HIT:     214324  MISS:      25250
LLC RFO       ACCESS:      39033  HIT:      30062  MISS:       8971
LLC PREFETCH  ACCESS:    2103703  HIT:    1997924  MISS:     105779
LLC WRITEBACK ACCESS:     134014  HIT:     133654  MISS:        360
LLC PREFETCH  REQUESTED:          0  ISSUED:          0  USEFUL:      15539  USELESS:      88419
LLC AVERAGE MISS LATENCY: 167.707 cycles
LLC

SHEET
LLC-total_access : 2516324
LLC-total_hit : 2375964
LLC-total_miss : 140360
LLC-load_access : 239574
LLC-load_hit : 214324
LLC-load_miss : 25250
LLC-rfo_access : 39033
LLC-rfo_hit : 30062
LLC-rfo_miss : 8971
LLC-prefetch_access : 2103703
LLC-prefetch_hit : 1997924
LLC-prefetch_miss : 105779
LLC-writeback_access : 134014
LLC-writeback_hit : 133654
LLC-writeback_miss : 360
LLC-prefetch_requested : 0
LLC-prefetch_issued : 0
LLC-prefetch_useful : 15539
LLC-prefetch_useless : 88419
LLC-Avg_miss_latency : 167.707

Major fault: 0 Minor fault: 6351



Printing Logs
morteza: start

SHEET
history_access_cntr : 5475637
index_access_cntr : 2228196
sab_access_cntr : 16236066
compactor_access_cntr : 15599832

morteza: end
CPU 0 L1D next line prefetcher final stats

DRAM Statistics
 CHANNEL 0
 RQ ROW_BUFFER_HIT:      26493  ROW_BUFFER_MISS:     113503
 DBUS_CONGESTED:      60672
 WQ ROW_BUFFER_HIT:       9491  ROW_BUFFER_MISS:      38586  FULL:          0

 AVG_CONGESTED_CYCLE: 5

CPU 0 Branch Prediction Accuracy: 99.4713% MPKI: 1.11484 Average ROB Occupancy at Mispredict: 108.727

Branch types
NOT_BRANCH: 39456626 78.9132%
BRANCH_DIRECT_JUMP: 445350 0.8907%
BRANCH_INDIRECT: 131149 0.262298%
BRANCH_CONDITIONAL: 8130200 16.2604%
BRANCH_DIRECT_CALL: 732485 1.46497%
BRANCH_INDIRECT_CALL: 172369 0.344738%
BRANCH_RETURN: 931558 1.86312%
BRANCH_OTHER: 0 0%

