Initialize SIGNATURE TABLE
ST_SET: 1
ST_WAY: 256
ST_TAG_BIT: 16
ST_TAG_MASK: ffff

Initialize PATTERN TABLE
PT_SET: 512
PT_WAY: 4
SIG_DELTA_BIT: 7
C_SIG_BIT: 4
C_DELTA_BIT: 4

Initialize PREFETCH FILTER
FILTER_SET: 1024

*** ChampSim Multicore Out-of-Order Simulator ***

Warmup Instructions: 50000000
Simulation Instructions: 50000000
Number of CPUs: 1
LLC sets: 2048
LLC ways: 16
Off-chip DRAM Size: 4096 MB Channels: 1 Width: 64-bit Data Rate: 3200 MT/s

CPU 0 runs /home/mbaradaran/ChampSim/dpc3_traces/server_001.champsimtrace.xz
CPU 0 L1D next line prefetcher
Heartbeat CPU 0 instructions: 10000002 cycles: 3156648 heartbeat IPC: 3.16792 cumulative IPC: 3.16792 (Simulation time: 0 hr 1 min 35 sec) 
Heartbeat CPU 0 instructions: 20000000 cycles: 6375704 heartbeat IPC: 3.1065 cumulative IPC: 3.13691 (Simulation time: 0 hr 3 min 16 sec) 
Heartbeat CPU 0 instructions: 30000003 cycles: 9565586 heartbeat IPC: 3.13491 cumulative IPC: 3.13624 (Simulation time: 0 hr 4 min 53 sec) 
Heartbeat CPU 0 instructions: 40000002 cycles: 12775797 heartbeat IPC: 3.11506 cumulative IPC: 3.13092 (Simulation time: 0 hr 6 min 32 sec) 
Heartbeat CPU 0 instructions: 50000000 cycles: 15998261 heartbeat IPC: 3.10321 cumulative IPC: 3.12534 (Simulation time: 0 hr 8 min 22 sec) 

Warmup complete CPU 0 instructions: 50000004 cycles: 15998262 (Simulation time: 0 hr 8 min 22 sec) 

Heartbeat CPU 0 instructions: 60000000 cycles: 23759423 heartbeat IPC: 1.28847 cumulative IPC: 1.28847 (Simulation time: 0 hr 9 min 52 sec) 
Heartbeat CPU 0 instructions: 70000002 cycles: 31113461 heartbeat IPC: 1.3598 cumulative IPC: 1.32317 (Simulation time: 0 hr 11 min 28 sec) 
Heartbeat CPU 0 instructions: 80000002 cycles: 38832964 heartbeat IPC: 1.29542 cumulative IPC: 1.31379 (Simulation time: 0 hr 13 min 3 sec) 
Heartbeat CPU 0 instructions: 90000002 cycles: 46429084 heartbeat IPC: 1.31646 cumulative IPC: 1.31446 (Simulation time: 0 hr 14 min 34 sec) 
Heartbeat CPU 0 instructions: 100000003 cycles: 53886838 heartbeat IPC: 1.34089 cumulative IPC: 1.31966 (Simulation time: 0 hr 16 min 8 sec) 
Finished CPU 0 instructions: 50000003 cycles: 37888577 cumulative IPC: 1.31966 (Simulation time: 0 hr 16 min 8 sec) 

ChampSim completed all CPUs

Region of Interest Statistics

CPU 0 cumulative IPC: 1.31966 instructions: 50000003 cycles: 37888577

SHEET
IPC : 1.31966

L1D TOTAL     ACCESS:   17870692  HIT:   17359555  MISS:     511137
L1D LOAD      ACCESS:    6572872  HIT:    6369201  MISS:     203671
L1D RFO       ACCESS:    5062634  HIT:    4979842  MISS:      82792
L1D PREFETCH  ACCESS:    6235186  HIT:    6010512  MISS:     224674
L1D WRITEBACK ACCESS:          0  HIT:          0  MISS:          0
L1D PREFETCH  REQUESTED:    6602095  ISSUED:    6410877  USEFUL:     132909  USELESS:      91890
L1D AVERAGE MISS LATENCY: 94.2391 cycles
L1D

SHEET
L1D-total_access : 17870692
L1D-total_hit : 17359555
L1D-total_miss : 511137
L1D-load_access : 6572872
L1D-load_hit : 6369201
L1D-load_miss : 203671
L1D-rfo_access : 5062634
L1D-rfo_hit : 4979842
L1D-rfo_miss : 82792
L1D-prefetch_access : 6235186
L1D-prefetch_hit : 6010512
L1D-prefetch_miss : 224674
L1D-writeback_access : 0
L1D-writeback_hit : 0
L1D-writeback_miss : 0
L1D-prefetch_requested : 6602095
L1D-prefetch_issued : 6410877
L1D-prefetch_useful : 132909
L1D-prefetch_useless : 91890
L1D-Avg_miss_latency : 94.2391

L1I TOTAL     ACCESS:   15688512  HIT:   13308924  MISS:    2379588
L1I LOAD      ACCESS:    8255248  HIT:    7968265  MISS:     286983
L1I RFO       ACCESS:          0  HIT:          0  MISS:          0
L1I PREFETCH  ACCESS:    7433264  HIT:    5340659  MISS:    2092605
L1I WRITEBACK ACCESS:          0  HIT:          0  MISS:          0
L1I PREFETCH  REQUESTED:    7565838  ISSUED:    7544627  USEFUL:    1130047  USELESS:     962667
L1I AVERAGE MISS LATENCY: 19.159 cycles
L1I

SHEET
L1I-total_access : 15688512
L1I-total_hit : 13308924
L1I-total_miss : 2379588
L1I-load_access : 8255248
L1I-load_hit : 7968265
L1I-load_miss : 286983
L1I-rfo_access : 0
L1I-rfo_hit : 0
L1I-rfo_miss : 0
L1I-prefetch_access : 7433264
L1I-prefetch_hit : 5340659
L1I-prefetch_miss : 2092605
L1I-writeback_access : 0
L1I-writeback_hit : 0
L1I-writeback_miss : 0
L1I-prefetch_requested : 7565838
L1I-prefetch_issued : 7544627
L1I-prefetch_useful : 1130047
L1I-prefetch_useless : 962667
L1I-Avg_miss_latency : 19.159

L2C TOTAL     ACCESS:    4116463  HIT:    3627426  MISS:     489037
L2C LOAD      ACCESS:     426498  HIT:     281341  MISS:     145157
L2C RFO       ACCESS:      80961  HIT:       9747  MISS:      71214
L2C PREFETCH  ACCESS:    3401146  HIT:    3129300  MISS:     271846
L2C WRITEBACK ACCESS:     207858  HIT:     207038  MISS:        820
L2C PREFETCH  REQUESTED:    3964869  ISSUED:    3959656  USEFUL:      26829  USELESS:     242812
L2C AVERAGE MISS LATENCY: 109.18 cycles
L2C

SHEET
L2C-total_access : 4116463
L2C-total_hit : 3627426
L2C-total_miss : 489037
L2C-load_access : 426498
L2C-load_hit : 281341
L2C-load_miss : 145157
L2C-rfo_access : 80961
L2C-rfo_hit : 9747
L2C-rfo_miss : 71214
L2C-prefetch_access : 3401146
L2C-prefetch_hit : 3129300
L2C-prefetch_miss : 271846
L2C-writeback_access : 207858
L2C-writeback_hit : 207038
L2C-writeback_miss : 820
L2C-prefetch_requested : 3964869
L2C-prefetch_issued : 3959656
L2C-prefetch_useful : 26829
L2C-prefetch_useless : 242812
L2C-Avg_miss_latency : 109.18

LLC TOTAL     ACCESS:    1484561  HIT:    1154053  MISS:     330508
LLC LOAD      ACCESS:     143629  HIT:      95898  MISS:      47731
LLC RFO       ACCESS:      71211  HIT:       7093  MISS:      64118
LLC PREFETCH  ACCESS:    1100754  HIT:     882328  MISS:     218426
LLC WRITEBACK ACCESS:     168967  HIT:     168734  MISS:        233
LLC PREFETCH  REQUESTED:          0  ISSUED:          0  USEFUL:      41845  USELESS:     172220
LLC AVERAGE MISS LATENCY: 205.352 cycles
LLC

SHEET
LLC-total_access : 1484561
LLC-total_hit : 1154053
LLC-total_miss : 330508
LLC-load_access : 143629
LLC-load_hit : 95898
LLC-load_miss : 47731
LLC-rfo_access : 71211
LLC-rfo_hit : 7093
LLC-rfo_miss : 64118
LLC-prefetch_access : 1100754
LLC-prefetch_hit : 882328
LLC-prefetch_miss : 218426
LLC-writeback_access : 168967
LLC-writeback_hit : 168734
LLC-writeback_miss : 233
LLC-prefetch_requested : 0
LLC-prefetch_issued : 0
LLC-prefetch_useful : 41845
LLC-prefetch_useless : 172220
LLC-Avg_miss_latency : 205.352

Major fault: 0 Minor fault: 16697



Printing Logs
morteza: start

SHEET
history_access_cntr : 5432015
index_access_cntr : 1744647
sab_access_cntr : 13480027
compactor_access_cntr : 11683861

morteza: end
CPU 0 L1D next line prefetcher final stats

DRAM Statistics
 CHANNEL 0
 RQ ROW_BUFFER_HIT:      93005  ROW_BUFFER_MISS:     237250
 DBUS_CONGESTED:     218610
 WQ ROW_BUFFER_HIT:      37071  ROW_BUFFER_MISS:     122360  FULL:          0

 AVG_CONGESTED_CYCLE: 6

CPU 0 Branch Prediction Accuracy: 99.5888% MPKI: 0.70116 Average ROB Occupancy at Mispredict: 101.351

Branch types
NOT_BRANCH: 41473799 82.9476%
BRANCH_DIRECT_JUMP: 347943 0.695886%
BRANCH_INDIRECT: 148212 0.296424%
BRANCH_CONDITIONAL: 6817313 13.6346%
BRANCH_DIRECT_CALL: 570726 1.14145%
BRANCH_INDIRECT_CALL: 25133 0.050266%
BRANCH_RETURN: 617124 1.23425%
BRANCH_OTHER: 0 0%

