Initialize SIGNATURE TABLE
ST_SET: 1
ST_WAY: 256
ST_TAG_BIT: 16
ST_TAG_MASK: ffff

Initialize PATTERN TABLE
PT_SET: 512
PT_WAY: 4
SIG_DELTA_BIT: 7
C_SIG_BIT: 4
C_DELTA_BIT: 4

Initialize PREFETCH FILTER
FILTER_SET: 1024

*** ChampSim Multicore Out-of-Order Simulator ***

Warmup Instructions: 50000000
Simulation Instructions: 50000000
Number of CPUs: 1
LLC sets: 2048
LLC ways: 16
Off-chip DRAM Size: 4096 MB Channels: 1 Width: 64-bit Data Rate: 3200 MT/s

CPU 0 runs /home/mbaradaran/ChampSim/dpc3_traces/server_019.champsimtrace.xz
CPU 0 L1D next line prefetcher
Heartbeat CPU 0 instructions: 10000002 cycles: 3624179 heartbeat IPC: 2.75925 cumulative IPC: 2.75925 (Simulation time: 0 hr 1 min 54 sec) 
Heartbeat CPU 0 instructions: 20000003 cycles: 7249994 heartbeat IPC: 2.758 cumulative IPC: 2.75862 (Simulation time: 0 hr 3 min 48 sec) 
Heartbeat CPU 0 instructions: 30000002 cycles: 10874343 heartbeat IPC: 2.75912 cumulative IPC: 2.75879 (Simulation time: 0 hr 5 min 46 sec) 
Heartbeat CPU 0 instructions: 40000002 cycles: 14510910 heartbeat IPC: 2.74985 cumulative IPC: 2.75655 (Simulation time: 0 hr 7 min 45 sec) 
Heartbeat CPU 0 instructions: 50000001 cycles: 18135692 heartbeat IPC: 2.75879 cumulative IPC: 2.75699 (Simulation time: 0 hr 9 min 49 sec) 

Warmup complete CPU 0 instructions: 50000001 cycles: 18135692 (Simulation time: 0 hr 9 min 49 sec) 

Heartbeat CPU 0 instructions: 60000000 cycles: 37966368 heartbeat IPC: 0.504269 cumulative IPC: 0.504269 (Simulation time: 0 hr 12 min 42 sec) 
Heartbeat CPU 0 instructions: 70000002 cycles: 61460329 heartbeat IPC: 0.425641 cumulative IPC: 0.461631 (Simulation time: 0 hr 15 min 22 sec) 
Heartbeat CPU 0 instructions: 80000001 cycles: 81934295 heartbeat IPC: 0.488425 cumulative IPC: 0.47023 (Simulation time: 0 hr 18 min 5 sec) 
Heartbeat CPU 0 instructions: 90000002 cycles: 99484882 heartbeat IPC: 0.569782 cumulative IPC: 0.491707 (Simulation time: 0 hr 20 min 48 sec) 
Heartbeat CPU 0 instructions: 100000002 cycles: 117041623 heartbeat IPC: 0.569582 cumulative IPC: 0.505531 (Simulation time: 0 hr 23 min 20 sec) 
Finished CPU 0 instructions: 50000001 cycles: 98905931 cumulative IPC: 0.505531 (Simulation time: 0 hr 23 min 20 sec) 

ChampSim completed all CPUs

Region of Interest Statistics

CPU 0 cumulative IPC: 0.505531 instructions: 50000001 cycles: 98905931

SHEET
IPC : 0.505531

L1D TOTAL     ACCESS:   18323638  HIT:   16100001  MISS:    2223637
L1D LOAD      ACCESS:    6986425  HIT:    6232767  MISS:     753658
L1D RFO       ACCESS:    5513703  HIT:    4611819  MISS:     901884
L1D PREFETCH  ACCESS:    5823510  HIT:    5255415  MISS:     568095
L1D WRITEBACK ACCESS:          0  HIT:          0  MISS:          0
L1D PREFETCH  REQUESTED:    7024278  ISSUED:    6838631  USEFUL:     198875  USELESS:     369129
L1D AVERAGE MISS LATENCY: 186.301 cycles
L1D

SHEET
L1D-total_access : 18323638
L1D-total_hit : 16100001
L1D-total_miss : 2223637
L1D-load_access : 6986425
L1D-load_hit : 6232767
L1D-load_miss : 753658
L1D-rfo_access : 5513703
L1D-rfo_hit : 4611819
L1D-rfo_miss : 901884
L1D-prefetch_access : 5823510
L1D-prefetch_hit : 5255415
L1D-prefetch_miss : 568095
L1D-writeback_access : 0
L1D-writeback_hit : 0
L1D-writeback_miss : 0
L1D-prefetch_requested : 7024278
L1D-prefetch_issued : 6838631
L1D-prefetch_useful : 198875
L1D-prefetch_useless : 369129
L1D-Avg_miss_latency : 186.301

L1I TOTAL     ACCESS:   14751272  HIT:   11661351  MISS:    3089921
L1I LOAD      ACCESS:    9838611  HIT:    9692266  MISS:     146345
L1I RFO       ACCESS:          0  HIT:          0  MISS:          0
L1I PREFETCH  ACCESS:    4912661  HIT:    1969085  MISS:    2943576
L1I WRITEBACK ACCESS:          0  HIT:          0  MISS:          0
L1I PREFETCH  REQUESTED:    5028076  ISSUED:    5025821  USEFUL:    2641431  USELESS:     302143
L1I AVERAGE MISS LATENCY: 17.1196 cycles
L1I

SHEET
L1I-total_access : 14751272
L1I-total_hit : 11661351
L1I-total_miss : 3089921
L1I-load_access : 9838611
L1I-load_hit : 9692266
L1I-load_miss : 146345
L1I-rfo_access : 0
L1I-rfo_hit : 0
L1I-rfo_miss : 0
L1I-prefetch_access : 4912661
L1I-prefetch_hit : 1969085
L1I-prefetch_miss : 2943576
L1I-writeback_access : 0
L1I-writeback_hit : 0
L1I-writeback_miss : 0
L1I-prefetch_requested : 5028076
L1I-prefetch_issued : 5025821
L1I-prefetch_useful : 2641431
L1I-prefetch_useless : 302143
L1I-Avg_miss_latency : 17.1196

L2C TOTAL     ACCESS:    7710312  HIT:    5829745  MISS:    1880567
L2C LOAD      ACCESS:     630097  HIT:     293605  MISS:     336492
L2C RFO       ACCESS:     901485  HIT:      18200  MISS:     883285
L2C PREFETCH  ACCESS:    5004095  HIT:    4345863  MISS:     658232
L2C WRITEBACK ACCESS:    1174635  HIT:    1172077  MISS:       2558
L2C PREFETCH  REQUESTED:    5239907  ISSUED:    5232494  USEFUL:      24813  USELESS:     631963
L2C AVERAGE MISS LATENCY: 222.878 cycles
L2C

SHEET
L2C-total_access : 7710312
L2C-total_hit : 5829745
L2C-total_miss : 1880567
L2C-load_access : 630097
L2C-load_hit : 293605
L2C-load_miss : 336492
L2C-rfo_access : 901485
L2C-rfo_hit : 18200
L2C-rfo_miss : 883285
L2C-prefetch_access : 5004095
L2C-prefetch_hit : 4345863
L2C-prefetch_miss : 658232
L2C-writeback_access : 1174635
L2C-writeback_hit : 1172077
L2C-writeback_miss : 2558
L2C-prefetch_requested : 5239907
L2C-prefetch_issued : 5232494
L2C-prefetch_useful : 24813
L2C-prefetch_useless : 631963
L2C-Avg_miss_latency : 222.878

LLC TOTAL     ACCESS:    4356338  HIT:    2756441  MISS:    1599897
LLC LOAD      ACCESS:     336379  HIT:     168388  MISS:     167991
LLC RFO       ACCESS:     883271  HIT:     115591  MISS:     767680
LLC PREFETCH  ACCESS:    2025669  HIT:    1363634  MISS:     662035
LLC WRITEBACK ACCESS:    1111019  HIT:    1108828  MISS:       2191
LLC PREFETCH  REQUESTED:          0  ISSUED:          0  USEFUL:      52426  USELESS:     608110
LLC AVERAGE MISS LATENCY: 276.359 cycles
LLC

SHEET
LLC-total_access : 4356338
LLC-total_hit : 2756441
LLC-total_miss : 1599897
LLC-load_access : 336379
LLC-load_hit : 168388
LLC-load_miss : 167991
LLC-rfo_access : 883271
LLC-rfo_hit : 115591
LLC-rfo_miss : 767680
LLC-prefetch_access : 2025669
LLC-prefetch_hit : 1363634
LLC-prefetch_miss : 662035
LLC-writeback_access : 1111019
LLC-writeback_hit : 1108828
LLC-writeback_miss : 2191
LLC-prefetch_requested : 0
LLC-prefetch_issued : 0
LLC-prefetch_useful : 52426
LLC-prefetch_useless : 608110
LLC-Avg_miss_latency : 276.359

Major fault: 0 Minor fault: 25691



Printing Logs
morteza: start

SHEET
history_access_cntr : 5830391
index_access_cntr : 2485361
sab_access_cntr : 16193667
compactor_access_cntr : 15552276

morteza: end
CPU 0 L1D next line prefetcher final stats

DRAM Statistics
 CHANNEL 0
 RQ ROW_BUFFER_HIT:     394049  ROW_BUFFER_MISS:    1203388
 DBUS_CONGESTED:    1584245
 WQ ROW_BUFFER_HIT:     261450  ROW_BUFFER_MISS:     674254  FULL:          0

 AVG_CONGESTED_CYCLE: 6

CPU 0 Branch Prediction Accuracy: 99.2186% MPKI: 1.32192 Average ROB Occupancy at Mispredict: 177.721

Branch types
NOT_BRANCH: 41540785 83.0816%
BRANCH_DIRECT_JUMP: 462384 0.924768%
BRANCH_INDIRECT: 45460 0.09092%
BRANCH_CONDITIONAL: 6209281 12.4186%
BRANCH_DIRECT_CALL: 666241 1.33248%
BRANCH_INDIRECT_CALL: 204728 0.409456%
BRANCH_RETURN: 870978 1.74196%
BRANCH_OTHER: 0 0%

