Initialize SIGNATURE TABLE
ST_SET: 1
ST_WAY: 256
ST_TAG_BIT: 16
ST_TAG_MASK: ffff

Initialize PATTERN TABLE
PT_SET: 512
PT_WAY: 4
SIG_DELTA_BIT: 7
C_SIG_BIT: 4
C_DELTA_BIT: 4

Initialize PREFETCH FILTER
FILTER_SET: 1024

*** ChampSim Multicore Out-of-Order Simulator ***

Warmup Instructions: 50000000
Simulation Instructions: 50000000
Number of CPUs: 1
LLC sets: 2048
LLC ways: 16
Off-chip DRAM Size: 4096 MB Channels: 1 Width: 64-bit Data Rate: 3200 MT/s

CPU 0 runs /home/mbaradaran/ChampSim/dpc3_traces/server_017.champsimtrace.xz
CPU 0 L1D next line prefetcher
Heartbeat CPU 0 instructions: 10000001 cycles: 3624537 heartbeat IPC: 2.75897 cumulative IPC: 2.75897 (Simulation time: 0 hr 1 min 58 sec) 
Heartbeat CPU 0 instructions: 20000000 cycles: 7246910 heartbeat IPC: 2.76062 cumulative IPC: 2.7598 (Simulation time: 0 hr 3 min 59 sec) 
Heartbeat CPU 0 instructions: 30000002 cycles: 10878477 heartbeat IPC: 2.75363 cumulative IPC: 2.75774 (Simulation time: 0 hr 5 min 59 sec) 
Heartbeat CPU 0 instructions: 40000000 cycles: 14506483 heartbeat IPC: 2.75633 cumulative IPC: 2.75739 (Simulation time: 0 hr 7 min 58 sec) 
Heartbeat CPU 0 instructions: 50000001 cycles: 18145168 heartbeat IPC: 2.74825 cumulative IPC: 2.75555 (Simulation time: 0 hr 9 min 55 sec) 

Warmup complete CPU 0 instructions: 50000001 cycles: 18145168 (Simulation time: 0 hr 9 min 55 sec) 

Heartbeat CPU 0 instructions: 60000002 cycles: 35590971 heartbeat IPC: 0.573204 cumulative IPC: 0.573204 (Simulation time: 0 hr 12 min 34 sec) 
Heartbeat CPU 0 instructions: 70000002 cycles: 53180233 heartbeat IPC: 0.568529 cumulative IPC: 0.570857 (Simulation time: 0 hr 15 min 7 sec) 
Heartbeat CPU 0 instructions: 80000000 cycles: 70465915 heartbeat IPC: 0.578513 cumulative IPC: 0.573386 (Simulation time: 0 hr 17 min 48 sec) 
Heartbeat CPU 0 instructions: 90000002 cycles: 93668747 heartbeat IPC: 0.430982 cumulative IPC: 0.529636 (Simulation time: 0 hr 20 min 24 sec) 
Heartbeat CPU 0 instructions: 100000003 cycles: 113546046 heartbeat IPC: 0.503087 cumulative IPC: 0.524104 (Simulation time: 0 hr 22 min 58 sec) 
Finished CPU 0 instructions: 50000002 cycles: 95400878 cumulative IPC: 0.524104 (Simulation time: 0 hr 22 min 58 sec) 

ChampSim completed all CPUs

Region of Interest Statistics

CPU 0 cumulative IPC: 0.524104 instructions: 50000002 cycles: 95400878

SHEET
IPC : 0.524104

L1D TOTAL     ACCESS:   18382438  HIT:   16216822  MISS:    2165616
L1D LOAD      ACCESS:    7032330  HIT:    6287923  MISS:     744407
L1D RFO       ACCESS:    5511766  HIT:    4652670  MISS:     859096
L1D PREFETCH  ACCESS:    5838342  HIT:    5276229  MISS:     562113
L1D WRITEBACK ACCESS:          0  HIT:          0  MISS:          0
L1D PREFETCH  REQUESTED:    7070471  ISSUED:    6881022  USEFUL:     199688  USELESS:     362486
L1D AVERAGE MISS LATENCY: 174.844 cycles
L1D

SHEET
L1D-total_access : 18382438
L1D-total_hit : 16216822
L1D-total_miss : 2165616
L1D-load_access : 7032330
L1D-load_hit : 6287923
L1D-load_miss : 744407
L1D-rfo_access : 5511766
L1D-rfo_hit : 4652670
L1D-rfo_miss : 859096
L1D-prefetch_access : 5838342
L1D-prefetch_hit : 5276229
L1D-prefetch_miss : 562113
L1D-writeback_access : 0
L1D-writeback_hit : 0
L1D-writeback_miss : 0
L1D-prefetch_requested : 7070471
L1D-prefetch_issued : 6881022
L1D-prefetch_useful : 199688
L1D-prefetch_useless : 362486
L1D-Avg_miss_latency : 174.844

L1I TOTAL     ACCESS:   15164095  HIT:   12064774  MISS:    3099321
L1I LOAD      ACCESS:    9874559  HIT:    9738519  MISS:     136040
L1I RFO       ACCESS:          0  HIT:          0  MISS:          0
L1I PREFETCH  ACCESS:    5289536  HIT:    2326255  MISS:    2963281
L1I WRITEBACK ACCESS:          0  HIT:          0  MISS:          0
L1I PREFETCH  REQUESTED:    5387195  ISSUED:    5385952  USEFUL:    2709745  USELESS:     253518
L1I AVERAGE MISS LATENCY: 16.8006 cycles
L1I

SHEET
L1I-total_access : 15164095
L1I-total_hit : 12064774
L1I-total_miss : 3099321
L1I-load_access : 9874559
L1I-load_hit : 9738519
L1I-load_miss : 136040
L1I-rfo_access : 0
L1I-rfo_hit : 0
L1I-rfo_miss : 0
L1I-prefetch_access : 5289536
L1I-prefetch_hit : 2326255
L1I-prefetch_miss : 2963281
L1I-writeback_access : 0
L1I-writeback_hit : 0
L1I-writeback_miss : 0
L1I-prefetch_requested : 5387195
L1I-prefetch_issued : 5385952
L1I-prefetch_useful : 2709745
L1I-prefetch_useless : 253518
L1I-Avg_miss_latency : 16.8006

L2C TOTAL     ACCESS:    7588794  HIT:    5753178  MISS:    1835616
L2C LOAD      ACCESS:     615993  HIT:     284875  MISS:     331118
L2C RFO       ACCESS:     858685  HIT:      17346  MISS:     841339
L2C PREFETCH  ACCESS:    4991272  HIT:    4330233  MISS:     661039
L2C WRITEBACK ACCESS:    1122844  HIT:    1120724  MISS:       2120
L2C PREFETCH  REQUESTED:    5257740  ISSUED:    5249791  USEFUL:      25498  USELESS:     635861
L2C AVERAGE MISS LATENCY: 208.646 cycles
L2C

SHEET
L2C-total_access : 7588794
L2C-total_hit : 5753178
L2C-total_miss : 1835616
L2C-load_access : 615993
L2C-load_hit : 284875
L2C-load_miss : 331118
L2C-rfo_access : 858685
L2C-rfo_hit : 17346
L2C-rfo_miss : 841339
L2C-prefetch_access : 4991272
L2C-prefetch_hit : 4330233
L2C-prefetch_miss : 661039
L2C-writeback_access : 1122844
L2C-writeback_hit : 1120724
L2C-writeback_miss : 2120
L2C-prefetch_requested : 5257740
L2C-prefetch_issued : 5249791
L2C-prefetch_useful : 25498
L2C-prefetch_useless : 635861
L2C-Avg_miss_latency : 208.646

LLC TOTAL     ACCESS:    4264581  HIT:    2722359  MISS:    1542222
LLC LOAD      ACCESS:     331028  HIT:     172186  MISS:     158842
LLC RFO       ACCESS:     841275  HIT:     122557  MISS:     718718
LLC PREFETCH  ACCESS:    2030445  HIT:    1367934  MISS:     662511
LLC WRITEBACK ACCESS:    1061833  HIT:    1059682  MISS:       2151
LLC PREFETCH  REQUESTED:          0  ISSUED:          0  USEFUL:      49720  USELESS:     611430
LLC AVERAGE MISS LATENCY: 264.906 cycles
LLC

SHEET
LLC-total_access : 4264581
LLC-total_hit : 2722359
LLC-total_miss : 1542222
LLC-load_access : 331028
LLC-load_hit : 172186
LLC-load_miss : 158842
LLC-rfo_access : 841275
LLC-rfo_hit : 122557
LLC-rfo_miss : 718718
LLC-prefetch_access : 2030445
LLC-prefetch_hit : 1367934
LLC-prefetch_miss : 662511
LLC-writeback_access : 1061833
LLC-writeback_hit : 1059682
LLC-writeback_miss : 2151
LLC-prefetch_requested : 0
LLC-prefetch_issued : 0
LLC-prefetch_useful : 49720
LLC-prefetch_useless : 611430
LLC-Avg_miss_latency : 264.906

Major fault: 0 Minor fault: 24694



Printing Logs
morteza: start

SHEET
history_access_cntr : 5971897
index_access_cntr : 2504103
sab_access_cntr : 16355498
compactor_access_cntr : 15532295

morteza: end
CPU 0 L1D next line prefetcher final stats

DRAM Statistics
 CHANNEL 0
 RQ ROW_BUFFER_HIT:     381608  ROW_BUFFER_MISS:    1158300
 DBUS_CONGESTED:    1487561
 WQ ROW_BUFFER_HIT:     244874  ROW_BUFFER_MISS:     633729  FULL:          0

 AVG_CONGESTED_CYCLE: 6

CPU 0 Branch Prediction Accuracy: 99.2833% MPKI: 1.20568 Average ROB Occupancy at Mispredict: 180.836

Branch types
NOT_BRANCH: 41588350 83.1767%
BRANCH_DIRECT_JUMP: 464501 0.929002%
BRANCH_INDIRECT: 45704 0.091408%
BRANCH_CONDITIONAL: 6147408 12.2948%
BRANCH_DIRECT_CALL: 675450 1.3509%
BRANCH_INDIRECT_CALL: 201532 0.403064%
BRANCH_RETURN: 876985 1.75397%
BRANCH_OTHER: 0 0%

