Initialize SIGNATURE TABLE
ST_SET: 1
ST_WAY: 256
ST_TAG_BIT: 16
ST_TAG_MASK: ffff

Initialize PATTERN TABLE
PT_SET: 512
PT_WAY: 4
SIG_DELTA_BIT: 7
C_SIG_BIT: 4
C_DELTA_BIT: 4

Initialize PREFETCH FILTER
FILTER_SET: 1024

*** ChampSim Multicore Out-of-Order Simulator ***

Warmup Instructions: 50000000
Simulation Instructions: 50000000
Number of CPUs: 1
LLC sets: 2048
LLC ways: 16
Off-chip DRAM Size: 4096 MB Channels: 1 Width: 64-bit Data Rate: 3200 MT/s

CPU 0 runs /home/mbaradaran/ChampSim/dpc3_traces/spec_gcc_002.champsimtrace.xz
CPU 0 L1D next line prefetcher
Heartbeat CPU 0 instructions: 10000002 cycles: 3548869 heartbeat IPC: 2.8178 cumulative IPC: 2.8178 (Simulation time: 0 hr 1 min 35 sec) 
Heartbeat CPU 0 instructions: 20000000 cycles: 7125311 heartbeat IPC: 2.79607 cumulative IPC: 2.8069 (Simulation time: 0 hr 2 min 53 sec) 
Heartbeat CPU 0 instructions: 30000000 cycles: 10746310 heartbeat IPC: 2.76167 cumulative IPC: 2.79166 (Simulation time: 0 hr 3 min 59 sec) 
Heartbeat CPU 0 instructions: 40000000 cycles: 14299061 heartbeat IPC: 2.81472 cumulative IPC: 2.79739 (Simulation time: 0 hr 5 min 3 sec) 
Heartbeat CPU 0 instructions: 50000002 cycles: 17769514 heartbeat IPC: 2.88147 cumulative IPC: 2.81381 (Simulation time: 0 hr 6 min 2 sec) 

Warmup complete CPU 0 instructions: 50000002 cycles: 17769514 (Simulation time: 0 hr 6 min 2 sec) 

Heartbeat CPU 0 instructions: 60000001 cycles: 57648181 heartbeat IPC: 0.250761 cumulative IPC: 0.250761 (Simulation time: 0 hr 8 min 26 sec) 
Heartbeat CPU 0 instructions: 70000001 cycles: 89822289 heartbeat IPC: 0.310809 cumulative IPC: 0.277574 (Simulation time: 0 hr 10 min 29 sec) 
Heartbeat CPU 0 instructions: 80000002 cycles: 138874385 heartbeat IPC: 0.203865 cumulative IPC: 0.247719 (Simulation time: 0 hr 13 min 10 sec) 
Heartbeat CPU 0 instructions: 90000001 cycles: 183428082 heartbeat IPC: 0.224448 cumulative IPC: 0.24146 (Simulation time: 0 hr 15 min 41 sec) 
Heartbeat CPU 0 instructions: 100000000 cycles: 215325723 heartbeat IPC: 0.313503 cumulative IPC: 0.253093 (Simulation time: 0 hr 17 min 42 sec) 
Finished CPU 0 instructions: 50000002 cycles: 197556217 cumulative IPC: 0.253092 (Simulation time: 0 hr 17 min 42 sec) 

ChampSim completed all CPUs

Region of Interest Statistics

CPU 0 cumulative IPC: 0.253092 instructions: 50000002 cycles: 197556217

SHEET
IPC : 0.253092

L1D TOTAL     ACCESS:   18308560  HIT:   13074904  MISS:    5233656
L1D LOAD      ACCESS:    6391747  HIT:    5333042  MISS:    1058705
L1D RFO       ACCESS:    7040963  HIT:    3440260  MISS:    3600703
L1D PREFETCH  ACCESS:    4875850  HIT:    4301602  MISS:     574248
L1D WRITEBACK ACCESS:          0  HIT:          0  MISS:          0
L1D PREFETCH  REQUESTED:    6411970  ISSUED:    6341879  USEFUL:     414471  USELESS:     159993
L1D AVERAGE MISS LATENCY: 334.163 cycles
L1D

SHEET
L1D-total_access : 18308560
L1D-total_hit : 13074904
L1D-total_miss : 5233656
L1D-load_access : 6391747
L1D-load_hit : 5333042
L1D-load_miss : 1058705
L1D-rfo_access : 7040963
L1D-rfo_hit : 3440260
L1D-rfo_miss : 3600703
L1D-prefetch_access : 4875850
L1D-prefetch_hit : 4301602
L1D-prefetch_miss : 574248
L1D-writeback_access : 0
L1D-writeback_hit : 0
L1D-writeback_miss : 0
L1D-prefetch_requested : 6411970
L1D-prefetch_issued : 6341879
L1D-prefetch_useful : 414471
L1D-prefetch_useless : 159993
L1D-Avg_miss_latency : 334.163

L1I TOTAL     ACCESS:   15928402  HIT:   14343244  MISS:    1585158
L1I LOAD      ACCESS:   12128467  HIT:   11934082  MISS:     194385
L1I RFO       ACCESS:          0  HIT:          0  MISS:          0
L1I PREFETCH  ACCESS:    3799935  HIT:    2409162  MISS:    1390773
L1I WRITEBACK ACCESS:          0  HIT:          0  MISS:          0
L1I PREFETCH  REQUESTED:    4052373  ISSUED:    3972088  USEFUL:     848901  USELESS:     541788
L1I AVERAGE MISS LATENCY: 42.2192 cycles
L1I

SHEET
L1I-total_access : 15928402
L1I-total_hit : 14343244
L1I-total_miss : 1585158
L1I-load_access : 12128467
L1I-load_hit : 11934082
L1I-load_miss : 194385
L1I-rfo_access : 0
L1I-rfo_hit : 0
L1I-rfo_miss : 0
L1I-prefetch_access : 3799935
L1I-prefetch_hit : 2409162
L1I-prefetch_miss : 1390773
L1I-writeback_access : 0
L1I-writeback_hit : 0
L1I-writeback_miss : 0
L1I-prefetch_requested : 4052373
L1I-prefetch_issued : 3972088
L1I-prefetch_useful : 848901
L1I-prefetch_useless : 541788
L1I-Avg_miss_latency : 42.2192

L2C TOTAL     ACCESS:   11136087  HIT:    5815444  MISS:    5320643
L2C LOAD      ACCESS:     388005  HIT:     210755  MISS:     177250
L2C RFO       ACCESS:    3599105  HIT:      12305  MISS:    3586800
L2C PREFETCH  ACCESS:    3423480  HIT:    1867040  MISS:    1556440
L2C WRITEBACK ACCESS:    3725497  HIT:    3725344  MISS:        153
L2C PREFETCH  REQUESTED:    3765840  ISSUED:    3765634  USEFUL:      63887  USELESS:    1492712
L2C AVERAGE MISS LATENCY: 343.975 cycles
L2C

SHEET
L2C-total_access : 11136087
L2C-total_hit : 5815444
L2C-total_miss : 5320643
L2C-load_access : 388005
L2C-load_hit : 210755
L2C-load_miss : 177250
L2C-rfo_access : 3599105
L2C-rfo_hit : 12305
L2C-rfo_miss : 3586800
L2C-prefetch_access : 3423480
L2C-prefetch_hit : 1867040
L2C-prefetch_miss : 1556440
L2C-writeback_access : 3725497
L2C-writeback_hit : 3725344
L2C-writeback_miss : 153
L2C-prefetch_requested : 3765840
L2C-prefetch_issued : 3765634
L2C-prefetch_useful : 63887
L2C-prefetch_useless : 1492712
L2C-Avg_miss_latency : 343.975

LLC TOTAL     ACCESS:   10134370  HIT:    6282813  MISS:    3851557
LLC LOAD      ACCESS:     177078  HIT:     105608  MISS:      71470
LLC RFO       ACCESS:    3586800  HIT:     604618  MISS:    2982182
LLC PREFETCH  ACCESS:    2703878  HIT:    1905973  MISS:     797905
LLC WRITEBACK ACCESS:    3666614  HIT:    3666614  MISS:          0
LLC PREFETCH  REQUESTED:          0  ISSUED:          0  USEFUL:     151203  USELESS:     642389
LLC AVERAGE MISS LATENCY: 456.64 cycles
LLC

SHEET
LLC-total_access : 10134370
LLC-total_hit : 6282813
LLC-total_miss : 3851557
LLC-load_access : 177078
LLC-load_hit : 105608
LLC-load_miss : 71470
LLC-rfo_access : 3586801
LLC-rfo_hit : 604618
LLC-rfo_miss : 2982183
LLC-prefetch_access : 2703878
LLC-prefetch_hit : 1905973
LLC-prefetch_miss : 797905
LLC-writeback_access : 3666614
LLC-writeback_hit : 3666614
LLC-writeback_miss : 0
LLC-prefetch_requested : 0
LLC-prefetch_issued : 0
LLC-prefetch_useful : 151203
LLC-prefetch_useless : 642389
LLC-Avg_miss_latency : 456.64

Major fault: 0 Minor fault: 4152



Printing Logs
morteza: start

SHEET
history_access_cntr : 3480172
index_access_cntr : 1208611
sab_access_cntr : 14874554
compactor_access_cntr : 14050511

morteza: end
CPU 0 L1D next line prefetcher final stats

DRAM Statistics
 CHANNEL 0
 RQ ROW_BUFFER_HIT:    1012594  ROW_BUFFER_MISS:    2836495
 DBUS_CONGESTED:    5518427
 WQ ROW_BUFFER_HIT:     940992  ROW_BUFFER_MISS:    2220593  FULL:          0

 AVG_CONGESTED_CYCLE: 6

CPU 0 Branch Prediction Accuracy: 99.5987% MPKI: 0.82446 Average ROB Occupancy at Mispredict: 123.864

Branch types
NOT_BRANCH: 39726805 79.4536%
BRANCH_DIRECT_JUMP: 391438 0.782876%
BRANCH_INDIRECT: 62076 0.124152%
BRANCH_CONDITIONAL: 8421541 16.8431%
BRANCH_DIRECT_CALL: 672962 1.34592%
BRANCH_INDIRECT_CALL: 26115 0.05223%
BRANCH_RETURN: 699082 1.39816%
BRANCH_OTHER: 0 0%

