Initialize SIGNATURE TABLE
ST_SET: 1
ST_WAY: 256
ST_TAG_BIT: 16
ST_TAG_MASK: ffff

Initialize PATTERN TABLE
PT_SET: 512
PT_WAY: 4
SIG_DELTA_BIT: 7
C_SIG_BIT: 4
C_DELTA_BIT: 4

Initialize PREFETCH FILTER
FILTER_SET: 1024

*** ChampSim Multicore Out-of-Order Simulator ***

Warmup Instructions: 50000000
Simulation Instructions: 50000000
Number of CPUs: 1
LLC sets: 2048
LLC ways: 16
Off-chip DRAM Size: 4096 MB Channels: 1 Width: 64-bit Data Rate: 3200 MT/s

CPU 0 runs /home/mbaradaran/ChampSim/dpc3_traces/spec_gobmk_001.champsimtrace.xz
CPU 0 L1D next line prefetcher
Heartbeat CPU 0 instructions: 10000003 cycles: 3507321 heartbeat IPC: 2.85118 cumulative IPC: 2.85118 (Simulation time: 0 hr 1 min 29 sec) 
Heartbeat CPU 0 instructions: 20000002 cycles: 6988652 heartbeat IPC: 2.87246 cumulative IPC: 2.86178 (Simulation time: 0 hr 2 min 41 sec) 
Heartbeat CPU 0 instructions: 30000002 cycles: 10508341 heartbeat IPC: 2.84116 cumulative IPC: 2.85488 (Simulation time: 0 hr 3 min 44 sec) 
Heartbeat CPU 0 instructions: 40000001 cycles: 14028343 heartbeat IPC: 2.84091 cumulative IPC: 2.85137 (Simulation time: 0 hr 4 min 46 sec) 
Heartbeat CPU 0 instructions: 50000001 cycles: 17569127 heartbeat IPC: 2.82423 cumulative IPC: 2.8459 (Simulation time: 0 hr 5 min 51 sec) 

Warmup complete CPU 0 instructions: 50000001 cycles: 17569127 (Simulation time: 0 hr 5 min 51 sec) 

Heartbeat CPU 0 instructions: 60000000 cycles: 26775722 heartbeat IPC: 1.08618 cumulative IPC: 1.08618 (Simulation time: 0 hr 6 min 42 sec) 
Heartbeat CPU 0 instructions: 70000002 cycles: 35722102 heartbeat IPC: 1.11777 cumulative IPC: 1.10175 (Simulation time: 0 hr 7 min 33 sec) 
Heartbeat CPU 0 instructions: 80000003 cycles: 44933584 heartbeat IPC: 1.0856 cumulative IPC: 1.09631 (Simulation time: 0 hr 8 min 25 sec) 
Heartbeat CPU 0 instructions: 90000001 cycles: 53743098 heartbeat IPC: 1.13514 cumulative IPC: 1.10577 (Simulation time: 0 hr 9 min 16 sec) 
Heartbeat CPU 0 instructions: 100000003 cycles: 62985291 heartbeat IPC: 1.08199 cumulative IPC: 1.10093 (Simulation time: 0 hr 10 min 8 sec) 
Finished CPU 0 instructions: 50000002 cycles: 45416164 cumulative IPC: 1.10093 (Simulation time: 0 hr 10 min 8 sec) 

ChampSim completed all CPUs

Region of Interest Statistics

CPU 0 cumulative IPC: 1.10093 instructions: 50000002 cycles: 45416164

SHEET
IPC : 1.10093

L1D TOTAL     ACCESS:   18133932  HIT:   17754337  MISS:     379595
L1D LOAD      ACCESS:    7283997  HIT:    7149204  MISS:     134793
L1D RFO       ACCESS:    3704810  HIT:    3600324  MISS:     104486
L1D PREFETCH  ACCESS:    7145125  HIT:    7004809  MISS:     140316
L1D WRITEBACK ACCESS:          0  HIT:          0  MISS:          0
L1D PREFETCH  REQUESTED:    7289217  ISSUED:    7206249  USEFUL:      45605  USELESS:      94716
L1D AVERAGE MISS LATENCY: 33.6697 cycles
L1D

SHEET
L1D-total_access : 18133932
L1D-total_hit : 17754337
L1D-total_miss : 379595
L1D-load_access : 7283997
L1D-load_hit : 7149204
L1D-load_miss : 134793
L1D-rfo_access : 3704810
L1D-rfo_hit : 3600324
L1D-rfo_miss : 104486
L1D-prefetch_access : 7145125
L1D-prefetch_hit : 7004809
L1D-prefetch_miss : 140316
L1D-writeback_access : 0
L1D-writeback_hit : 0
L1D-writeback_miss : 0
L1D-prefetch_requested : 7289217
L1D-prefetch_issued : 7206249
L1D-prefetch_useful : 45605
L1D-prefetch_useless : 94716
L1D-Avg_miss_latency : 33.6697

L1I TOTAL     ACCESS:   16771326  HIT:   13951047  MISS:    2820279
L1I LOAD      ACCESS:    9036621  HIT:    8728411  MISS:     308210
L1I RFO       ACCESS:          0  HIT:          0  MISS:          0
L1I PREFETCH  ACCESS:    7734705  HIT:    5222636  MISS:    2512069
L1I WRITEBACK ACCESS:          0  HIT:          0  MISS:          0
L1I PREFETCH  REQUESTED:    7914730  ISSUED:    7913163  USEFUL:    1335227  USELESS:    1176834
L1I AVERAGE MISS LATENCY: 14.4864 cycles
L1I

SHEET
L1I-total_access : 16771326
L1I-total_hit : 13951047
L1I-total_miss : 2820279
L1I-load_access : 9036621
L1I-load_hit : 8728411
L1I-load_miss : 308210
L1I-rfo_access : 0
L1I-rfo_hit : 0
L1I-rfo_miss : 0
L1I-prefetch_access : 7734705
L1I-prefetch_hit : 5222636
L1I-prefetch_miss : 2512069
L1I-writeback_access : 0
L1I-writeback_hit : 0
L1I-writeback_miss : 0
L1I-prefetch_requested : 7914730
L1I-prefetch_issued : 7913163
L1I-prefetch_useful : 1335227
L1I-prefetch_useless : 1176834
L1I-Avg_miss_latency : 14.4864

L2C TOTAL     ACCESS:    4825358  HIT:    4703332  MISS:     122026
L2C LOAD      ACCESS:     382997  HIT:     344983  MISS:      38014
L2C RFO       ACCESS:     104138  HIT:      70100  MISS:      34038
L2C PREFETCH  ACCESS:    4198918  HIT:    4149051  MISS:      49867
L2C WRITEBACK ACCESS:     139305  HIT:     139198  MISS:        107
L2C PREFETCH  REQUESTED:    3603755  ISSUED:    3603343  USEFUL:       4975  USELESS:      44944
L2C AVERAGE MISS LATENCY: 65.7192 cycles
L2C

SHEET
L2C-total_access : 4825358
L2C-total_hit : 4703332
L2C-total_miss : 122026
L2C-load_access : 382997
L2C-load_hit : 344983
L2C-load_miss : 38014
L2C-rfo_access : 104138
L2C-rfo_hit : 70100
L2C-rfo_miss : 34038
L2C-prefetch_access : 4198918
L2C-prefetch_hit : 4149051
L2C-prefetch_miss : 49867
L2C-writeback_access : 139305
L2C-writeback_hit : 139198
L2C-writeback_miss : 107
L2C-prefetch_requested : 3603755
L2C-prefetch_issued : 3603343
L2C-prefetch_useful : 4975
L2C-prefetch_useless : 44944
L2C-Avg_miss_latency : 65.7192

LLC TOTAL     ACCESS:     404727  HIT:     367567  MISS:      37160
LLC LOAD      ACCESS:      38011  HIT:      29581  MISS:       8430
LLC RFO       ACCESS:      34038  HIT:      27058  MISS:       6980
LLC PREFETCH  ACCESS:     287764  HIT:     266302  MISS:      21462
LLC WRITEBACK ACCESS:      44914  HIT:      44626  MISS:        288
LLC PREFETCH  REQUESTED:          0  ISSUED:          0  USEFUL:       1540  USELESS:      18237
LLC AVERAGE MISS LATENCY: 178.97 cycles
LLC

SHEET
LLC-total_access : 404727
LLC-total_hit : 367567
LLC-total_miss : 37160
LLC-load_access : 38011
LLC-load_hit : 29581
LLC-load_miss : 8430
LLC-rfo_access : 34038
LLC-rfo_hit : 27058
LLC-rfo_miss : 6980
LLC-prefetch_access : 287764
LLC-prefetch_hit : 266302
LLC-prefetch_miss : 21462
LLC-writeback_access : 44914
LLC-writeback_hit : 44626
LLC-writeback_miss : 288
LLC-prefetch_requested : 0
LLC-prefetch_issued : 0
LLC-prefetch_useful : 1540
LLC-prefetch_useless : 18237
LLC-Avg_miss_latency : 178.97

Major fault: 0 Minor fault: 4156



Printing Logs
morteza: start

SHEET
history_access_cntr : 5163138
index_access_cntr : 1609789
sab_access_cntr : 16082524
compactor_access_cntr : 13909933

morteza: end
CPU 0 L1D next line prefetcher final stats

DRAM Statistics
 CHANNEL 0
 RQ ROW_BUFFER_HIT:       4824  ROW_BUFFER_MISS:      32047
 DBUS_CONGESTED:      20995
 WQ ROW_BUFFER_HIT:       1618  ROW_BUFFER_MISS:      15016  FULL:          0

 AVG_CONGESTED_CYCLE: 4

CPU 0 Branch Prediction Accuracy: 94.7729% MPKI: 9.72684 Average ROB Occupancy at Mispredict: 50.8749

Branch types
NOT_BRANCH: 40695382 81.3908%
BRANCH_DIRECT_JUMP: 422107 0.844214%
BRANCH_INDIRECT: 65 0.00013%
BRANCH_CONDITIONAL: 8105006 16.21%
BRANCH_DIRECT_CALL: 374913 0.749826%
BRANCH_INDIRECT_CALL: 13657 0.027314%
BRANCH_RETURN: 388556 0.777112%
BRANCH_OTHER: 0 0%

