Initialize SIGNATURE TABLE
ST_SET: 1
ST_WAY: 256
ST_TAG_BIT: 16
ST_TAG_MASK: ffff

Initialize PATTERN TABLE
PT_SET: 512
PT_WAY: 4
SIG_DELTA_BIT: 7
C_SIG_BIT: 4
C_DELTA_BIT: 4

Initialize PREFETCH FILTER
FILTER_SET: 1024
MANA initialize 
tds: 2 tdm: 4
size MANA SINGLE: 74 KB
size MANA NULTIPLE: 43 KB
size HOBPT: 5 KB
size SRQ: 0.0644531 KB
size SABs: 0.0402832 KB
size prefetch queue: 0.453125 KB
total: 122.558 KB

*** ChampSim Multicore Out-of-Order Simulator ***

Warmup Instructions: 50000000
Simulation Instructions: 50000000
Number of CPUs: 1
LLC sets: 2048
LLC ways: 16
Off-chip DRAM Size: 4096 MB Channels: 1 Width: 64-bit Data Rate: 3200 MT/s

CPU 0 runs /home/mbaradaran/ChampSim/dpc3_traces/client_007.champsimtrace.xz
CPU 0 L1D next line prefetcher
Heartbeat CPU 0 instructions: 10000001 cycles: 3643248 heartbeat IPC: 2.7448 cumulative IPC: 2.7448 (Simulation time: 0 hr 1 min 15 sec) 
Heartbeat CPU 0 instructions: 20000003 cycles: 7035931 heartbeat IPC: 2.94752 cumulative IPC: 2.84255 (Simulation time: 0 hr 2 min 27 sec) 
Heartbeat CPU 0 instructions: 30000000 cycles: 10908568 heartbeat IPC: 2.58222 cumulative IPC: 2.75013 (Simulation time: 0 hr 3 min 51 sec) 
Heartbeat CPU 0 instructions: 40000003 cycles: 15068891 heartbeat IPC: 2.40366 cumulative IPC: 2.65448 (Simulation time: 0 hr 5 min 16 sec) 
Heartbeat CPU 0 instructions: 50000002 cycles: 18474295 heartbeat IPC: 2.93651 cumulative IPC: 2.70646 (Simulation time: 0 hr 6 min 31 sec) 

Warmup complete CPU 0 instructions: 50000002 cycles: 18474295 (Simulation time: 0 hr 6 min 31 sec) 

Heartbeat CPU 0 instructions: 60000003 cycles: 25525350 heartbeat IPC: 1.41823 cumulative IPC: 1.41823 (Simulation time: 0 hr 7 min 59 sec) 
Heartbeat CPU 0 instructions: 70000003 cycles: 34446671 heartbeat IPC: 1.12091 cumulative IPC: 1.25216 (Simulation time: 0 hr 9 min 33 sec) 
Heartbeat CPU 0 instructions: 80000002 cycles: 39827914 heartbeat IPC: 1.85831 cumulative IPC: 1.40491 (Simulation time: 0 hr 10 min 39 sec) 
Heartbeat CPU 0 instructions: 90000002 cycles: 47633128 heartbeat IPC: 1.28119 cumulative IPC: 1.3718 (Simulation time: 0 hr 11 min 57 sec) 
Heartbeat CPU 0 instructions: 100000002 cycles: 56579121 heartbeat IPC: 1.11782 cumulative IPC: 1.31217 (Simulation time: 0 hr 13 min 21 sec) 
Finished CPU 0 instructions: 50000000 cycles: 38104826 cumulative IPC: 1.31217 (Simulation time: 0 hr 13 min 21 sec) 

ChampSim completed all CPUs

Region of Interest Statistics

CPU 0 cumulative IPC: 1.31217 instructions: 50000000 cycles: 38104826

SHEET
IPC : 1.31217

L1D TOTAL     ACCESS:   21307993  HIT:   20138373  MISS:    1169620
L1D LOAD      ACCESS:    8423002  HIT:    7884277  MISS:     538725
L1D RFO       ACCESS:    4870762  HIT:    4779727  MISS:      91035
L1D PREFETCH  ACCESS:    8014229  HIT:    7474369  MISS:     539860
L1D WRITEBACK ACCESS:          0  HIT:          0  MISS:          0
L1D PREFETCH  REQUESTED:    8475613  ISSUED:    8233842  USEFUL:     158969  USELESS:     380906
L1D AVERAGE MISS LATENCY: 34.5017 cycles
L1D

SHEET
L1D-total_access : 21307993
L1D-total_hit : 20138373
L1D-total_miss : 1169620
L1D-load_access : 8423002
L1D-load_hit : 7884277
L1D-load_miss : 538725
L1D-rfo_access : 4870762
L1D-rfo_hit : 4779727
L1D-rfo_miss : 91035
L1D-prefetch_access : 8014229
L1D-prefetch_hit : 7474369
L1D-prefetch_miss : 539860
L1D-writeback_access : 0
L1D-writeback_hit : 0
L1D-writeback_miss : 0
L1D-prefetch_requested : 8475613
L1D-prefetch_issued : 8233842
L1D-prefetch_useful : 158969
L1D-prefetch_useless : 380906
L1D-Avg_miss_latency : 34.5017
L1D-Morteza_fill_l2_prefetches : 0

L1I TOTAL     ACCESS:   18403740  HIT:   17200572  MISS:    1203168
L1I LOAD      ACCESS:    9060328  HIT:    8855496  MISS:     204832
L1I RFO       ACCESS:          0  HIT:          0  MISS:          0
L1I PREFETCH  ACCESS:    9343412  HIT:    8345076  MISS:     998336
L1I WRITEBACK ACCESS:          0  HIT:          0  MISS:          0
L1I PREFETCH  REQUESTED:   11203781  ISSUED:   11158470  USEFUL:     811983  USELESS:     186342
L1I AVERAGE MISS LATENCY: 15.5125 cycles
L1I

SHEET
L1I-total_access : 18403740
L1I-total_hit : 17200572
L1I-total_miss : 1203168
L1I-load_access : 9060328
L1I-load_hit : 8855496
L1I-load_miss : 204832
L1I-rfo_access : 0
L1I-rfo_hit : 0
L1I-rfo_miss : 0
L1I-prefetch_access : 9343412
L1I-prefetch_hit : 8345076
L1I-prefetch_miss : 998336
L1I-writeback_access : 0
L1I-writeback_hit : 0
L1I-writeback_miss : 0
L1I-prefetch_requested : 11203781
L1I-prefetch_issued : 11158470
L1I-prefetch_useful : 811983
L1I-prefetch_useless : 186342
L1I-Avg_miss_latency : 15.5125
L1I-Morteza_fill_l2_prefetches : 0

L2C TOTAL     ACCESS:    3407714  HIT:    3199745  MISS:     207969
L2C LOAD      ACCESS:     649290  HIT:     579184  MISS:      70106
L2C RFO       ACCESS:      89506  HIT:      47743  MISS:      41763
L2C PREFETCH  ACCESS:    2341204  HIT:    2245448  MISS:      95756
L2C WRITEBACK ACCESS:     327714  HIT:     327370  MISS:        344
L2C PREFETCH  REQUESTED:    2824992  ISSUED:    2820041  USEFUL:       9667  USELESS:      85595
L2C AVERAGE MISS LATENCY: 124.71 cycles
L2C

SHEET
L2C-total_access : 3407714
L2C-total_hit : 3199745
L2C-total_miss : 207969
L2C-load_access : 649290
L2C-load_hit : 579184
L2C-load_miss : 70106
L2C-rfo_access : 89506
L2C-rfo_hit : 47743
L2C-rfo_miss : 41763
L2C-prefetch_access : 2341204
L2C-prefetch_hit : 2245448
L2C-prefetch_miss : 95756
L2C-writeback_access : 327714
L2C-writeback_hit : 327370
L2C-writeback_miss : 344
L2C-prefetch_requested : 2824992
L2C-prefetch_issued : 2820041
L2C-prefetch_useful : 9667
L2C-prefetch_useless : 85595
L2C-Avg_miss_latency : 124.71
L2C-Morteza_fill_l2_prefetches : 721753

LLC TOTAL     ACCESS:    1064424  HIT:     895090  MISS:     169334
LLC LOAD      ACCESS:      70026  HIT:      35100  MISS:      34926
LLC RFO       ACCESS:      41762  HIT:       7241  MISS:      34521
LLC PREFETCH  ACCESS:     877590  HIT:     778042  MISS:      99548
LLC WRITEBACK ACCESS:      75046  HIT:      74707  MISS:        339
LLC PREFETCH  REQUESTED:          0  ISSUED:          0  USEFUL:      18757  USELESS:      81496
LLC AVERAGE MISS LATENCY: 182.278 cycles
LLC

SHEET
LLC-total_access : 1064424
LLC-total_hit : 895090
LLC-total_miss : 169334
LLC-load_access : 70026
LLC-load_hit : 35100
LLC-load_miss : 34926
LLC-rfo_access : 41762
LLC-rfo_hit : 7241
LLC-rfo_miss : 34521
LLC-prefetch_access : 877590
LLC-prefetch_hit : 778042
LLC-prefetch_miss : 99548
LLC-writeback_access : 75046
LLC-writeback_hit : 74707
LLC-writeback_miss : 339
LLC-prefetch_requested : 0
LLC-prefetch_issued : 0
LLC-prefetch_useful : 18757
LLC-prefetch_useless : 81496
LLC-Avg_miss_latency : 182.278
LLC-Morteza_fill_l2_prefetches : 725808

Major fault: 0 Minor fault: 4469



Printing Logs
statHeadFound: 1876097
statHeadMissing: 1340371
statStreamBufferHit: 10448713
statPrefetchEntryFound: 7390455
statCompactorMatch: 12003110
statStreamTrackerLookup: 13665181
statRecord: 1662071
statGetPointer: 3216468
statEnqueuePrefetch: 22680516
statPrefetchQueueIsFull: 2783
StreamBufferHitRate: 0.764623
Regions' size: 5415
next_region_correct: 1066608
next_region_wrong: 590040
next_region_correct_prediction: 0.643835
statStreamBufferLookups: 136651810
statL1iLookups: 181444128
statCompactorLookups: 218642896
morteza: start

SHEET
mana_table_access_counter : 3115031
mana_table_multiple_access_counter : 7824623
hobp_table_access_counter : 39787016
sab_access_counter : 17839168
srq_access_counter : 13445852

morteza: end
CPU 0 L1D next line prefetcher final stats

DRAM Statistics
 CHANNEL 0
 RQ ROW_BUFFER_HIT:      36056  ROW_BUFFER_MISS:     132930
 DBUS_CONGESTED:      94763
 WQ ROW_BUFFER_HIT:      12887  ROW_BUFFER_MISS:      45163  FULL:          0

 AVG_CONGESTED_CYCLE: 5

CPU 0 Branch Prediction Accuracy: 98.8607% MPKI: 1.8623 Average ROB Occupancy at Mispredict: 111.191

Branch types
NOT_BRANCH: 41826773 83.6535%
BRANCH_DIRECT_JUMP: 735330 1.47066%
BRANCH_INDIRECT: 269194 0.538388%
BRANCH_CONDITIONAL: 5957947 11.9159%
BRANCH_DIRECT_CALL: 368758 0.737516%
BRANCH_INDIRECT_CALL: 226975 0.45395%
BRANCH_RETURN: 614696 1.22939%
BRANCH_OTHER: 0 0%

