Initialize SIGNATURE TABLE
ST_SET: 1
ST_WAY: 256
ST_TAG_BIT: 16
ST_TAG_MASK: ffff

Initialize PATTERN TABLE
PT_SET: 512
PT_WAY: 4
SIG_DELTA_BIT: 7
C_SIG_BIT: 4
C_DELTA_BIT: 4

Initialize PREFETCH FILTER
FILTER_SET: 1024
MANA initialize 
tds: 2 tdm: 4
size MANA SINGLE: 74 KB
size MANA NULTIPLE: 43 KB
size HOBPT: 5 KB
size SRQ: 0.0644531 KB
size SABs: 0.0402832 KB
size prefetch queue: 0.453125 KB
total: 122.558 KB

*** ChampSim Multicore Out-of-Order Simulator ***

Warmup Instructions: 50000000
Simulation Instructions: 50000000
Number of CPUs: 1
LLC sets: 2048
LLC ways: 16
Off-chip DRAM Size: 4096 MB Channels: 1 Width: 64-bit Data Rate: 3200 MT/s

CPU 0 runs /home/mbaradaran/ChampSim/dpc3_traces/server_030.champsimtrace.xz
CPU 0 L1D next line prefetcher
Heartbeat CPU 0 instructions: 10000003 cycles: 3516004 heartbeat IPC: 2.84414 cumulative IPC: 2.84414 (Simulation time: 0 hr 1 min 28 sec) 
Heartbeat CPU 0 instructions: 20000003 cycles: 7031539 heartbeat IPC: 2.84452 cumulative IPC: 2.84433 (Simulation time: 0 hr 2 min 56 sec) 
Heartbeat CPU 0 instructions: 30000000 cycles: 10545956 heartbeat IPC: 2.84542 cumulative IPC: 2.84469 (Simulation time: 0 hr 4 min 28 sec) 
Heartbeat CPU 0 instructions: 40000002 cycles: 14060664 heartbeat IPC: 2.84519 cumulative IPC: 2.84482 (Simulation time: 0 hr 6 min 0 sec) 
Heartbeat CPU 0 instructions: 50000002 cycles: 17578324 heartbeat IPC: 2.8428 cumulative IPC: 2.84441 (Simulation time: 0 hr 7 min 33 sec) 

Warmup complete CPU 0 instructions: 50000002 cycles: 17578324 (Simulation time: 0 hr 7 min 33 sec) 

Heartbeat CPU 0 instructions: 60000000 cycles: 25065247 heartbeat IPC: 1.33566 cumulative IPC: 1.33566 (Simulation time: 0 hr 8 min 59 sec) 
Heartbeat CPU 0 instructions: 70000000 cycles: 32570258 heartbeat IPC: 1.33244 cumulative IPC: 1.33405 (Simulation time: 0 hr 10 min 23 sec) 
Heartbeat CPU 0 instructions: 80000001 cycles: 40038877 heartbeat IPC: 1.33894 cumulative IPC: 1.33568 (Simulation time: 0 hr 11 min 46 sec) 
*** Reached end of trace for Core: 0 Repeating trace: /home/mbaradaran/ChampSim/dpc3_traces/server_030.champsimtrace.xz
Heartbeat CPU 0 instructions: 90000002 cycles: 47525207 heartbeat IPC: 1.33577 cumulative IPC: 1.3357 (Simulation time: 0 hr 13 min 7 sec) 
Heartbeat CPU 0 instructions: 100000002 cycles: 54992190 heartbeat IPC: 1.33923 cumulative IPC: 1.3364 (Simulation time: 0 hr 14 min 33 sec) 
Finished CPU 0 instructions: 50000000 cycles: 37413866 cumulative IPC: 1.3364 (Simulation time: 0 hr 14 min 33 sec) 

ChampSim completed all CPUs

Region of Interest Statistics

CPU 0 cumulative IPC: 1.3364 instructions: 50000000 cycles: 37413866

SHEET
IPC : 1.3364

L1D TOTAL     ACCESS:   19654815  HIT:   17578346  MISS:    2076469
L1D LOAD      ACCESS:    7003024  HIT:    5951819  MISS:    1051205
L1D RFO       ACCESS:    6185625  HIT:    5899695  MISS:     285930
L1D PREFETCH  ACCESS:    6466166  HIT:    5726832  MISS:     739334
L1D WRITEBACK ACCESS:          0  HIT:          0  MISS:          0
L1D PREFETCH  REQUESTED:    7055264  ISSUED:    6934040  USEFUL:     183873  USELESS:     555554
L1D AVERAGE MISS LATENCY: 19.0438 cycles
L1D

SHEET
L1D-total_access : 19654815
L1D-total_hit : 17578346
L1D-total_miss : 2076469
L1D-load_access : 7003024
L1D-load_hit : 5951819
L1D-load_miss : 1051205
L1D-rfo_access : 6185625
L1D-rfo_hit : 5899695
L1D-rfo_miss : 285930
L1D-prefetch_access : 6466166
L1D-prefetch_hit : 5726832
L1D-prefetch_miss : 739334
L1D-writeback_access : 0
L1D-writeback_hit : 0
L1D-writeback_miss : 0
L1D-prefetch_requested : 7055264
L1D-prefetch_issued : 6934040
L1D-prefetch_useful : 183873
L1D-prefetch_useless : 555554
L1D-Avg_miss_latency : 19.0438
L1D-Morteza_fill_l2_prefetches : 0

L1I TOTAL     ACCESS:   19081352  HIT:   14592877  MISS:    4488475
L1I LOAD      ACCESS:    9562700  HIT:    8581293  MISS:     981407
L1I RFO       ACCESS:          0  HIT:          0  MISS:          0
L1I PREFETCH  ACCESS:    9518652  HIT:    6011584  MISS:    3507068
L1I WRITEBACK ACCESS:          0  HIT:          0  MISS:          0
L1I PREFETCH  REQUESTED:   10969542  ISSUED:   10961945  USEFUL:    2391805  USELESS:    1115290
L1I AVERAGE MISS LATENCY: 15.5427 cycles
L1I

SHEET
L1I-total_access : 19081352
L1I-total_hit : 14592877
L1I-total_miss : 4488475
L1I-load_access : 9562700
L1I-load_hit : 8581293
L1I-load_miss : 981407
L1I-rfo_access : 0
L1I-rfo_hit : 0
L1I-rfo_miss : 0
L1I-prefetch_access : 9518652
L1I-prefetch_hit : 6011584
L1I-prefetch_miss : 3507068
L1I-writeback_access : 0
L1I-writeback_hit : 0
L1I-writeback_miss : 0
L1I-prefetch_requested : 10969542
L1I-prefetch_issued : 10961945
L1I-prefetch_useful : 2391805
L1I-prefetch_useless : 1115290
L1I-Avg_miss_latency : 15.5427
L1I-Morteza_fill_l2_prefetches : 0

L2C TOTAL     ACCESS:    9131035  HIT:    8364710  MISS:     766325
L2C LOAD      ACCESS:    1377973  HIT:    1187824  MISS:     190149
L2C RFO       ACCESS:     283566  HIT:     233826  MISS:      49740
L2C PREFETCH  ACCESS:    6854081  HIT:    6330307  MISS:     523774
L2C WRITEBACK ACCESS:     615415  HIT:     612753  MISS:       2662
L2C PREFETCH  REQUESTED:    8193560  ISSUED:    8175623  USEFUL:      24643  USELESS:     498471
L2C AVERAGE MISS LATENCY: 34.7417 cycles
L2C

SHEET
L2C-total_access : 9131035
L2C-total_hit : 8364710
L2C-total_miss : 766325
L2C-load_access : 1377973
L2C-load_hit : 1187824
L2C-load_miss : 190149
L2C-rfo_access : 283566
L2C-rfo_hit : 233826
L2C-rfo_miss : 49740
L2C-prefetch_access : 6854081
L2C-prefetch_hit : 6330307
L2C-prefetch_miss : 523774
L2C-writeback_access : 615415
L2C-writeback_hit : 612753
L2C-writeback_miss : 2662
L2C-prefetch_requested : 8193560
L2C-prefetch_issued : 8175623
L2C-prefetch_useful : 24643
L2C-prefetch_useless : 498471
L2C-Avg_miss_latency : 34.7417
L2C-Morteza_fill_l2_prefetches : 2039671

LLC TOTAL     ACCESS:    2881728  HIT:    2862103  MISS:      19625
LLC LOAD      ACCESS:     190121  HIT:     187368  MISS:       2753
LLC RFO       ACCESS:      49739  HIT:      47981  MISS:       1758
LLC PREFETCH  ACCESS:    2536932  HIT:    2521947  MISS:      14985
LLC WRITEBACK ACCESS:     104936  HIT:     104807  MISS:        129
LLC PREFETCH  REQUESTED:          0  ISSUED:          0  USEFUL:        920  USELESS:      13128
LLC AVERAGE MISS LATENCY: 145.488 cycles
LLC

SHEET
LLC-total_access : 2881728
LLC-total_hit : 2862103
LLC-total_miss : 19625
LLC-load_access : 190121
LLC-load_hit : 187368
LLC-load_miss : 2753
LLC-rfo_access : 49739
LLC-rfo_hit : 47981
LLC-rfo_miss : 1758
LLC-prefetch_access : 2536932
LLC-prefetch_hit : 2521947
LLC-prefetch_miss : 14985
LLC-writeback_access : 104936
LLC-writeback_hit : 104807
LLC-writeback_miss : 129
LLC-prefetch_requested : 0
LLC-prefetch_issued : 0
LLC-prefetch_useful : 920
LLC-prefetch_useless : 13128
LLC-Avg_miss_latency : 145.488
LLC-Morteza_fill_l2_prefetches : 2022834

Major fault: 0 Minor fault: 2110



Printing Logs
statHeadFound: 1776191
statHeadMissing: 1761362
statStreamBufferHit: 10956582
statPrefetchEntryFound: 8047122
statCompactorMatch: 11101999
statStreamTrackerLookup: 14494135
statRecord: 3392136
statGetPointer: 3537553
statEnqueuePrefetch: 21867727
statPrefetchQueueIsFull: 45
StreamBufferHitRate: 0.755932
Regions' size: 2323
next_region_correct: 2324422
next_region_wrong: 1065383
next_region_correct_prediction: 0.68571
statStreamBufferLookups: 144941350
statL1iLookups: 174941816
statCompactorLookups: 231906160
morteza: start

SHEET
mana_table_access_counter : 7000406
mana_table_multiple_access_counter : 6218536
hobp_table_access_counter : 49921894
sab_access_counter : 19003704
srq_access_counter : 16882727

morteza: end
CPU 0 L1D next line prefetcher final stats

DRAM Statistics
 CHANNEL 0
 RQ ROW_BUFFER_HIT:       6419  ROW_BUFFER_MISS:      13077
 DBUS_CONGESTED:       6920
 WQ ROW_BUFFER_HIT:        132  ROW_BUFFER_MISS:       2258  FULL:          0

 AVG_CONGESTED_CYCLE: 5

CPU 0 Branch Prediction Accuracy: 99.8445% MPKI: 0.29148 Average ROB Occupancy at Mispredict: 141.406

Branch types
NOT_BRANCH: 40628010 81.256%
BRANCH_DIRECT_JUMP: 490941 0.981882%
BRANCH_INDIRECT: 175853 0.351706%
BRANCH_CONDITIONAL: 6321407 12.6428%
BRANCH_DIRECT_CALL: 1002070 2.00414%
BRANCH_INDIRECT_CALL: 189783 0.379566%
BRANCH_RETURN: 1191850 2.3837%
BRANCH_OTHER: 0 0%

