Initialize SIGNATURE TABLE
ST_SET: 1
ST_WAY: 256
ST_TAG_BIT: 16
ST_TAG_MASK: ffff

Initialize PATTERN TABLE
PT_SET: 512
PT_WAY: 4
SIG_DELTA_BIT: 7
C_SIG_BIT: 4
C_DELTA_BIT: 4

Initialize PREFETCH FILTER
FILTER_SET: 1024
MANA initialize 
tds: 2 tdm: 4
size MANA SINGLE: 74 KB
size MANA NULTIPLE: 43 KB
size HOBPT: 5 KB
size SRQ: 0.0644531 KB
size SABs: 0.0402832 KB
size prefetch queue: 0.453125 KB
total: 122.558 KB

*** ChampSim Multicore Out-of-Order Simulator ***

Warmup Instructions: 50000000
Simulation Instructions: 50000000
Number of CPUs: 1
LLC sets: 2048
LLC ways: 16
Off-chip DRAM Size: 4096 MB Channels: 1 Width: 64-bit Data Rate: 3200 MT/s

CPU 0 runs /home/mbaradaran/ChampSim/dpc3_traces/server_014.champsimtrace.xz
CPU 0 L1D next line prefetcher
Heartbeat CPU 0 instructions: 10000003 cycles: 3519576 heartbeat IPC: 2.84125 cumulative IPC: 2.84125 (Simulation time: 0 hr 1 min 29 sec) 
Heartbeat CPU 0 instructions: 20000000 cycles: 7106636 heartbeat IPC: 2.7878 cumulative IPC: 2.81427 (Simulation time: 0 hr 2 min 58 sec) 
Heartbeat CPU 0 instructions: 30000001 cycles: 10648190 heartbeat IPC: 2.82362 cumulative IPC: 2.81738 (Simulation time: 0 hr 4 min 24 sec) 
Heartbeat CPU 0 instructions: 40000003 cycles: 14196411 heartbeat IPC: 2.81831 cumulative IPC: 2.81761 (Simulation time: 0 hr 5 min 47 sec) 
Heartbeat CPU 0 instructions: 50000000 cycles: 17745085 heartbeat IPC: 2.81795 cumulative IPC: 2.81768 (Simulation time: 0 hr 7 min 9 sec) 

Warmup complete CPU 0 instructions: 50000001 cycles: 17745086 (Simulation time: 0 hr 7 min 9 sec) 

Heartbeat CPU 0 instructions: 60000000 cycles: 24275060 heartbeat IPC: 1.5314 cumulative IPC: 1.5314 (Simulation time: 0 hr 8 min 23 sec) 
Heartbeat CPU 0 instructions: 70000003 cycles: 30807776 heartbeat IPC: 1.53076 cumulative IPC: 1.53108 (Simulation time: 0 hr 9 min 41 sec) 
*** Reached end of trace for Core: 0 Repeating trace: /home/mbaradaran/ChampSim/dpc3_traces/server_014.champsimtrace.xz
Heartbeat CPU 0 instructions: 80000001 cycles: 37733710 heartbeat IPC: 1.44385 cumulative IPC: 1.50085 (Simulation time: 0 hr 10 min 53 sec) 
Heartbeat CPU 0 instructions: 90000003 cycles: 45547923 heartbeat IPC: 1.27972 cumulative IPC: 1.4387 (Simulation time: 0 hr 12 min 11 sec) 
Heartbeat CPU 0 instructions: 100000001 cycles: 52280890 heartbeat IPC: 1.48523 cumulative IPC: 1.44777 (Simulation time: 0 hr 13 min 30 sec) 
Finished CPU 0 instructions: 50000000 cycles: 34535804 cumulative IPC: 1.44777 (Simulation time: 0 hr 13 min 30 sec) 

ChampSim completed all CPUs

Region of Interest Statistics

CPU 0 cumulative IPC: 1.44777 instructions: 50000000 cycles: 34535804

SHEET
IPC : 1.44777

L1D TOTAL     ACCESS:   22046848  HIT:   21975978  MISS:      70870
L1D LOAD      ACCESS:    6877848  HIT:    6850911  MISS:      26937
L1D RFO       ACCESS:    8417841  HIT:    8385768  MISS:      32073
L1D PREFETCH  ACCESS:    6751159  HIT:    6739299  MISS:      11860
L1D WRITEBACK ACCESS:          0  HIT:          0  MISS:          0
L1D PREFETCH  REQUESTED:    6882139  ISSUED:    6780231  USEFUL:       3300  USELESS:       8561
L1D AVERAGE MISS LATENCY: 234.849 cycles
L1D

SHEET
L1D-total_access : 22046848
L1D-total_hit : 21975978
L1D-total_miss : 70870
L1D-load_access : 6877848
L1D-load_hit : 6850911
L1D-load_miss : 26937
L1D-rfo_access : 8417841
L1D-rfo_hit : 8385768
L1D-rfo_miss : 32073
L1D-prefetch_access : 6751159
L1D-prefetch_hit : 6739299
L1D-prefetch_miss : 11860
L1D-writeback_access : 0
L1D-writeback_hit : 0
L1D-writeback_miss : 0
L1D-prefetch_requested : 6882139
L1D-prefetch_issued : 6780231
L1D-prefetch_useful : 3300
L1D-prefetch_useless : 8561
L1D-Avg_miss_latency : 234.849
L1D-Morteza_fill_l2_prefetches : 0

L1I TOTAL     ACCESS:   20410115  HIT:   16150544  MISS:    4259571
L1I LOAD      ACCESS:    9522854  HIT:    8749284  MISS:     773570
L1I RFO       ACCESS:          0  HIT:          0  MISS:          0
L1I PREFETCH  ACCESS:   10887261  HIT:    7401260  MISS:    3486001
L1I WRITEBACK ACCESS:          0  HIT:          0  MISS:          0
L1I PREFETCH  REQUESTED:   12243290  ISSUED:   12236164  USEFUL:    3046730  USELESS:     439290
L1I AVERAGE MISS LATENCY: 13.5337 cycles
L1I

SHEET
L1I-total_access : 20410115
L1I-total_hit : 16150544
L1I-total_miss : 4259571
L1I-load_access : 9522854
L1I-load_hit : 8749284
L1I-load_miss : 773570
L1I-rfo_access : 0
L1I-rfo_hit : 0
L1I-rfo_miss : 0
L1I-prefetch_access : 10887261
L1I-prefetch_hit : 7401260
L1I-prefetch_miss : 3486001
L1I-writeback_access : 0
L1I-writeback_hit : 0
L1I-writeback_miss : 0
L1I-prefetch_requested : 12243290
L1I-prefetch_issued : 12236164
L1I-prefetch_useful : 3046730
L1I-prefetch_useless : 439290
L1I-Avg_miss_latency : 13.5337
L1I-Morteza_fill_l2_prefetches : 0

L2C TOTAL     ACCESS:    5733927  HIT:    5662111  MISS:      71816
L2C LOAD      ACCESS:     369743  HIT:     349973  MISS:      19770
L2C RFO       ACCESS:      32021  HIT:       1062  MISS:      30959
L2C PREFETCH  ACCESS:    5293794  HIT:    5272736  MISS:      21058
L2C WRITEBACK ACCESS:      38369  HIT:      38340  MISS:         29
L2C PREFETCH  REQUESTED:    4406880  ISSUED:    4406776  USEFUL:       1984  USELESS:      18927
L2C AVERAGE MISS LATENCY: 263.916 cycles
L2C

SHEET
L2C-total_access : 5733927
L2C-total_hit : 5662111
L2C-total_miss : 71816
L2C-load_access : 369743
L2C-load_hit : 349973
L2C-load_miss : 19770
L2C-rfo_access : 32021
L2C-rfo_hit : 1062
L2C-rfo_miss : 30959
L2C-prefetch_access : 5293794
L2C-prefetch_hit : 5272736
L2C-prefetch_miss : 21058
L2C-writeback_access : 38369
L2C-writeback_hit : 38340
L2C-writeback_miss : 29
L2C-prefetch_requested : 4406880
L2C-prefetch_issued : 4406776
L2C-prefetch_useful : 1984
L2C-prefetch_useless : 18927
L2C-Avg_miss_latency : 263.916
L2C-Morteza_fill_l2_prefetches : 1393466

LLC TOTAL     ACCESS:     863462  HIT:     797824  MISS:      65638
LLC LOAD      ACCESS:      18492  HIT:       5533  MISS:      12959
LLC RFO       ACCESS:      30959  HIT:       4567  MISS:      26392
LLC PREFETCH  ACCESS:     779127  HIT:     752942  MISS:      26185
LLC WRITEBACK ACCESS:      34884  HIT:      34782  MISS:        102
LLC PREFETCH  REQUESTED:          0  ISSUED:          0  USEFUL:       4350  USELESS:      22538
LLC AVERAGE MISS LATENCY: 318.6 cycles
LLC

SHEET
LLC-total_access : 863462
LLC-total_hit : 797824
LLC-total_miss : 65638
LLC-load_access : 18492
LLC-load_hit : 5533
LLC-load_miss : 12959
LLC-rfo_access : 30959
LLC-rfo_hit : 4567
LLC-rfo_miss : 26392
LLC-prefetch_access : 779127
LLC-prefetch_hit : 752942
LLC-prefetch_miss : 26185
LLC-writeback_access : 34884
LLC-writeback_hit : 34782
LLC-writeback_miss : 102
LLC-prefetch_requested : 0
LLC-prefetch_issued : 0
LLC-prefetch_useful : 4350
LLC-prefetch_useless : 22538
LLC-Avg_miss_latency : 318.6
LLC-Morteza_fill_l2_prefetches : 745582

Major fault: 0 Minor fault: 1974



Printing Logs
statHeadFound: 1887016
statHeadMissing: 1385324
statStreamBufferHit: 11310027
statPrefetchEntryFound: 8707349
statCompactorMatch: 10967541
statStreamTrackerLookup: 14582367
statRecord: 3614826
statGetPointer: 3272340
statEnqueuePrefetch: 24435376
statPrefetchQueueIsFull: 3
StreamBufferHitRate: 0.775596
Regions' size: 2988
next_region_correct: 2523582
next_region_wrong: 1088248
next_region_correct_prediction: 0.698699
statStreamBufferLookups: 145823670
statL1iLookups: 195483008
statCompactorLookups: 233317872
morteza: start

SHEET
mana_table_access_counter : 6014022
mana_table_multiple_access_counter : 8198956
hobp_table_access_counter : 49351678
sab_access_counter : 20017376
srq_access_counter : 17628906

morteza: end
CPU 0 L1D next line prefetcher final stats

DRAM Statistics
 CHANNEL 0
 RQ ROW_BUFFER_HIT:      28188  ROW_BUFFER_MISS:      37344
 DBUS_CONGESTED:      67354
 WQ ROW_BUFFER_HIT:       8097  ROW_BUFFER_MISS:      24119  FULL:          0

 AVG_CONGESTED_CYCLE: 6

CPU 0 Branch Prediction Accuracy: 99.7719% MPKI: 0.38824 Average ROB Occupancy at Mispredict: 111.767

Branch types
NOT_BRANCH: 41488851 82.9777%
BRANCH_DIRECT_JUMP: 449416 0.898832%
BRANCH_INDIRECT: 2330 0.00466%
BRANCH_CONDITIONAL: 5470006 10.94%
BRANCH_DIRECT_CALL: 1172178 2.34436%
BRANCH_INDIRECT_CALL: 122383 0.244766%
BRANCH_RETURN: 1294546 2.58909%
BRANCH_OTHER: 0 0%

