Initialize SIGNATURE TABLE
ST_SET: 1
ST_WAY: 256
ST_TAG_BIT: 16
ST_TAG_MASK: ffff

Initialize PATTERN TABLE
PT_SET: 512
PT_WAY: 4
SIG_DELTA_BIT: 7
C_SIG_BIT: 4
C_DELTA_BIT: 4

Initialize PREFETCH FILTER
FILTER_SET: 1024
MANA initialize 
tds: 2 tdm: 4
size MANA SINGLE: 74 KB
size MANA NULTIPLE: 43 KB
size HOBPT: 5 KB
size SRQ: 0.0644531 KB
size SABs: 0.0402832 KB
size prefetch queue: 0.453125 KB
total: 122.558 KB

*** ChampSim Multicore Out-of-Order Simulator ***

Warmup Instructions: 50000000
Simulation Instructions: 50000000
Number of CPUs: 1
LLC sets: 2048
LLC ways: 16
Off-chip DRAM Size: 4096 MB Channels: 1 Width: 64-bit Data Rate: 3200 MT/s

CPU 0 runs /home/mbaradaran/ChampSim/dpc3_traces/server_019.champsimtrace.xz
CPU 0 L1D next line prefetcher
Heartbeat CPU 0 instructions: 10000002 cycles: 3627840 heartbeat IPC: 2.75646 cumulative IPC: 2.75646 (Simulation time: 0 hr 1 min 36 sec) 
Heartbeat CPU 0 instructions: 20000003 cycles: 7256953 heartbeat IPC: 2.75549 cumulative IPC: 2.75598 (Simulation time: 0 hr 3 min 1 sec) 
Heartbeat CPU 0 instructions: 30000002 cycles: 10885104 heartbeat IPC: 2.75622 cumulative IPC: 2.75606 (Simulation time: 0 hr 4 min 27 sec) 
Heartbeat CPU 0 instructions: 40000002 cycles: 14524993 heartbeat IPC: 2.74734 cumulative IPC: 2.75387 (Simulation time: 0 hr 5 min 52 sec) 
Heartbeat CPU 0 instructions: 50000001 cycles: 18153455 heartbeat IPC: 2.75599 cumulative IPC: 2.7543 (Simulation time: 0 hr 7 min 17 sec) 

Warmup complete CPU 0 instructions: 50000001 cycles: 18153455 (Simulation time: 0 hr 7 min 17 sec) 

Heartbeat CPU 0 instructions: 60000000 cycles: 37991143 heartbeat IPC: 0.504091 cumulative IPC: 0.504091 (Simulation time: 0 hr 9 min 25 sec) 
Heartbeat CPU 0 instructions: 70000002 cycles: 61509825 heartbeat IPC: 0.425194 cumulative IPC: 0.461293 (Simulation time: 0 hr 11 min 29 sec) 
Heartbeat CPU 0 instructions: 80000001 cycles: 82067924 heartbeat IPC: 0.486426 cumulative IPC: 0.469377 (Simulation time: 0 hr 13 min 33 sec) 
Heartbeat CPU 0 instructions: 90000002 cycles: 99532776 heartbeat IPC: 0.572579 cumulative IPC: 0.491525 (Simulation time: 0 hr 15 min 39 sec) 
Heartbeat CPU 0 instructions: 100000002 cycles: 117094417 heartbeat IPC: 0.569423 cumulative IPC: 0.505352 (Simulation time: 0 hr 17 min 47 sec) 
Finished CPU 0 instructions: 50000001 cycles: 98940962 cumulative IPC: 0.505352 (Simulation time: 0 hr 17 min 47 sec) 

ChampSim completed all CPUs

Region of Interest Statistics

CPU 0 cumulative IPC: 0.505352 instructions: 50000001 cycles: 98940962

SHEET
IPC : 0.505352

L1D TOTAL     ACCESS:   18341182  HIT:   16117569  MISS:    2223613
L1D LOAD      ACCESS:    6997858  HIT:    6243463  MISS:     754395
L1D RFO       ACCESS:    5517822  HIT:    4615880  MISS:     901942
L1D PREFETCH  ACCESS:    5825502  HIT:    5258226  MISS:     567276
L1D WRITEBACK ACCESS:          0  HIT:          0  MISS:          0
L1D PREFETCH  REQUESTED:    7035233  ISSUED:    6848999  USEFUL:     198056  USELESS:     369128
L1D AVERAGE MISS LATENCY: 185.532 cycles
L1D

SHEET
L1D-total_access : 18341182
L1D-total_hit : 16117569
L1D-total_miss : 2223613
L1D-load_access : 6997858
L1D-load_hit : 6243463
L1D-load_miss : 754395
L1D-rfo_access : 5517822
L1D-rfo_hit : 4615880
L1D-rfo_miss : 901942
L1D-prefetch_access : 5825502
L1D-prefetch_hit : 5258226
L1D-prefetch_miss : 567276
L1D-writeback_access : 0
L1D-writeback_hit : 0
L1D-writeback_miss : 0
L1D-prefetch_requested : 7035233
L1D-prefetch_issued : 6848999
L1D-prefetch_useful : 198056
L1D-prefetch_useless : 369128
L1D-Avg_miss_latency : 185.532
L1D-Morteza_fill_l2_prefetches : 0

L1I TOTAL     ACCESS:   16836604  HIT:   13850324  MISS:    2986280
L1I LOAD      ACCESS:    9745994  HIT:    9334102  MISS:     411892
L1I RFO       ACCESS:          0  HIT:          0  MISS:          0
L1I PREFETCH  ACCESS:    7090610  HIT:    4516222  MISS:    2574388
L1I WRITEBACK ACCESS:          0  HIT:          0  MISS:          0
L1I PREFETCH  REQUESTED:    7886251  ISSUED:    7866421  USEFUL:    2373523  USELESS:     200870
L1I AVERAGE MISS LATENCY: 16.4895 cycles
L1I

SHEET
L1I-total_access : 16836604
L1I-total_hit : 13850324
L1I-total_miss : 2986280
L1I-load_access : 9745994
L1I-load_hit : 9334102
L1I-load_miss : 411892
L1I-rfo_access : 0
L1I-rfo_hit : 0
L1I-rfo_miss : 0
L1I-prefetch_access : 7090610
L1I-prefetch_hit : 4516222
L1I-prefetch_miss : 2574388
L1I-writeback_access : 0
L1I-writeback_hit : 0
L1I-writeback_miss : 0
L1I-prefetch_requested : 7886251
L1I-prefetch_issued : 7866421
L1I-prefetch_useful : 2373523
L1I-prefetch_useless : 200870
L1I-Avg_miss_latency : 16.4895
L1I-Morteza_fill_l2_prefetches : 0

L2C TOTAL     ACCESS:    7580413  HIT:    5696206  MISS:    1884207
L2C LOAD      ACCESS:     692361  HIT:     353010  MISS:     339351
L2C RFO       ACCESS:     901560  HIT:      18575  MISS:     882985
L2C PREFETCH  ACCESS:    4811822  HIT:    4152147  MISS:     659675
L2C WRITEBACK ACCESS:    1174670  HIT:    1172474  MISS:       2196
L2C PREFETCH  REQUESTED:    5118626  ISSUED:    5111817  USEFUL:      28144  USELESS:     630176
L2C AVERAGE MISS LATENCY: 222.012 cycles
L2C

SHEET
L2C-total_access : 7580413
L2C-total_hit : 5696206
L2C-total_miss : 1884207
L2C-load_access : 692361
L2C-load_hit : 353010
L2C-load_miss : 339351
L2C-rfo_access : 901560
L2C-rfo_hit : 18575
L2C-rfo_miss : 882985
L2C-prefetch_access : 4811822
L2C-prefetch_hit : 4152147
L2C-prefetch_miss : 659675
L2C-writeback_access : 1174670
L2C-writeback_hit : 1172474
L2C-writeback_miss : 2196
L2C-prefetch_requested : 5118626
L2C-prefetch_issued : 5111817
L2C-prefetch_useful : 28144
L2C-prefetch_useless : 630176
L2C-Avg_miss_latency : 222.012
L2C-Morteza_fill_l2_prefetches : 1205643

LLC TOTAL     ACCESS:    4435170  HIT:    2786949  MISS:    1648221
LLC LOAD      ACCESS:     339226  HIT:     172158  MISS:     167068
LLC RFO       ACCESS:     882956  HIT:     114298  MISS:     768658
LLC PREFETCH  ACCESS:    2102727  HIT:    1392617  MISS:     710110
LLC WRITEBACK ACCESS:    1110261  HIT:    1107876  MISS:       2385
LLC PREFETCH  REQUESTED:          0  ISSUED:          0  USEFUL:      54107  USELESS:     654907
LLC AVERAGE MISS LATENCY: 273.066 cycles
LLC

SHEET
LLC-total_access : 4435170
LLC-total_hit : 2786949
LLC-total_miss : 1648221
LLC-load_access : 339226
LLC-load_hit : 172158
LLC-load_miss : 167068
LLC-rfo_access : 882956
LLC-rfo_hit : 114298
LLC-rfo_miss : 768658
LLC-prefetch_access : 2102727
LLC-prefetch_hit : 1392617
LLC-prefetch_miss : 710110
LLC-writeback_access : 1110261
LLC-writeback_hit : 1107876
LLC-writeback_miss : 2385
LLC-prefetch_requested : 0
LLC-prefetch_issued : 0
LLC-prefetch_useful : 54107
LLC-prefetch_useless : 654907
LLC-Avg_miss_latency : 273.066
LLC-Morteza_fill_l2_prefetches : 1097902

Major fault: 0 Minor fault: 25749



Printing Logs
statHeadFound: 1024154
statHeadMissing: 1928946
statStreamBufferHit: 10242847
statPrefetchEntryFound: 5419392
statCompactorMatch: 10618018
statStreamTrackerLookup: 13195947
statRecord: 2577929
statGetPointer: 2953100
statEnqueuePrefetch: 16512144
statPrefetchQueueIsFull: 0
StreamBufferHitRate: 0.776212
Regions' size: 1526
next_region_correct: 2069733
next_region_wrong: 506662
next_region_correct_prediction: 0.803345
statStreamBufferLookups: 131959470
statL1iLookups: 132097152
statCompactorLookups: 211135152
morteza: start

SHEET
mana_table_access_counter : 5176194
mana_table_multiple_access_counter : 3847094
hobp_table_access_counter : 39358926
sab_access_counter : 15662239
srq_access_counter : 14993012

morteza: end
CPU 0 L1D next line prefetcher final stats

DRAM Statistics
 CHANNEL 0
 RQ ROW_BUFFER_HIT:     402221  ROW_BUFFER_MISS:    1243448
 DBUS_CONGESTED:    1623807
 WQ ROW_BUFFER_HIT:     254276  ROW_BUFFER_MISS:     682952  FULL:          0

 AVG_CONGESTED_CYCLE: 6

CPU 0 Branch Prediction Accuracy: 99.2186% MPKI: 1.32192 Average ROB Occupancy at Mispredict: 177.12

Branch types
NOT_BRANCH: 41540785 83.0816%
BRANCH_DIRECT_JUMP: 462384 0.924768%
BRANCH_INDIRECT: 45460 0.09092%
BRANCH_CONDITIONAL: 6209281 12.4186%
BRANCH_DIRECT_CALL: 666241 1.33248%
BRANCH_INDIRECT_CALL: 204728 0.409456%
BRANCH_RETURN: 870978 1.74196%
BRANCH_OTHER: 0 0%

