Initialize SIGNATURE TABLE
ST_SET: 1
ST_WAY: 256
ST_TAG_BIT: 16
ST_TAG_MASK: ffff

Initialize PATTERN TABLE
PT_SET: 512
PT_WAY: 4
SIG_DELTA_BIT: 7
C_SIG_BIT: 4
C_DELTA_BIT: 4

Initialize PREFETCH FILTER
FILTER_SET: 1024
MANA initialize 
tds: 2 tdm: 4
size MANA SINGLE: 74 KB
size MANA NULTIPLE: 43 KB
size HOBPT: 5 KB
size SRQ: 0.0644531 KB
size SABs: 0.0402832 KB
size prefetch queue: 0.453125 KB
total: 122.558 KB

*** ChampSim Multicore Out-of-Order Simulator ***

Warmup Instructions: 50000000
Simulation Instructions: 50000000
Number of CPUs: 1
LLC sets: 2048
LLC ways: 16
Off-chip DRAM Size: 4096 MB Channels: 1 Width: 64-bit Data Rate: 3200 MT/s

CPU 0 runs /home/mbaradaran/ChampSim/dpc3_traces/server_026.champsimtrace.xz
CPU 0 L1D next line prefetcher
Heartbeat CPU 0 instructions: 10000000 cycles: 3530779 heartbeat IPC: 2.83224 cumulative IPC: 2.83224 (Simulation time: 0 hr 1 min 32 sec) 
Heartbeat CPU 0 instructions: 20000002 cycles: 7067709 heartbeat IPC: 2.82731 cumulative IPC: 2.82977 (Simulation time: 0 hr 3 min 0 sec) 
Heartbeat CPU 0 instructions: 30000000 cycles: 10594639 heartbeat IPC: 2.83533 cumulative IPC: 2.83162 (Simulation time: 0 hr 4 min 25 sec) 
Heartbeat CPU 0 instructions: 40000003 cycles: 14130625 heartbeat IPC: 2.82807 cumulative IPC: 2.83073 (Simulation time: 0 hr 5 min 48 sec) 
Heartbeat CPU 0 instructions: 50000000 cycles: 17659220 heartbeat IPC: 2.83399 cumulative IPC: 2.83138 (Simulation time: 0 hr 7 min 14 sec) 

Warmup complete CPU 0 instructions: 50000004 cycles: 17659221 (Simulation time: 0 hr 7 min 14 sec) 

*** Reached end of trace for Core: 0 Repeating trace: /home/mbaradaran/ChampSim/dpc3_traces/server_026.champsimtrace.xz
Heartbeat CPU 0 instructions: 60000000 cycles: 25080627 heartbeat IPC: 1.34745 cumulative IPC: 1.34745 (Simulation time: 0 hr 8 min 39 sec) 
Heartbeat CPU 0 instructions: 70000003 cycles: 32373107 heartbeat IPC: 1.37128 cumulative IPC: 1.35926 (Simulation time: 0 hr 10 min 7 sec) 
Heartbeat CPU 0 instructions: 80000002 cycles: 39774533 heartbeat IPC: 1.35109 cumulative IPC: 1.35653 (Simulation time: 0 hr 11 min 32 sec) 
Heartbeat CPU 0 instructions: 90000002 cycles: 47060253 heartbeat IPC: 1.37255 cumulative IPC: 1.3605 (Simulation time: 0 hr 13 min 1 sec) 
Heartbeat CPU 0 instructions: 100000000 cycles: 54439253 heartbeat IPC: 1.3552 cumulative IPC: 1.35943 (Simulation time: 0 hr 14 min 29 sec) 
Finished CPU 0 instructions: 50000000 cycles: 36780033 cumulative IPC: 1.35943 (Simulation time: 0 hr 14 min 29 sec) 

ChampSim completed all CPUs

Region of Interest Statistics

CPU 0 cumulative IPC: 1.35943 instructions: 50000000 cycles: 36780033

SHEET
IPC : 1.35943

L1D TOTAL     ACCESS:   20325783  HIT:   18680208  MISS:    1645575
L1D LOAD      ACCESS:    7202918  HIT:    6475187  MISS:     727731
L1D RFO       ACCESS:    6253723  HIT:    5967026  MISS:     286697
L1D PREFETCH  ACCESS:    6869142  HIT:    6237995  MISS:     631147
L1D WRITEBACK ACCESS:          0  HIT:          0  MISS:          0
L1D PREFETCH  REQUESTED:    7252522  ISSUED:    7117071  USEFUL:     153531  USELESS:     477627
L1D AVERAGE MISS LATENCY: 23.9533 cycles
L1D

SHEET
L1D-total_access : 20325783
L1D-total_hit : 18680208
L1D-total_miss : 1645575
L1D-load_access : 7202918
L1D-load_hit : 6475187
L1D-load_miss : 727731
L1D-rfo_access : 6253723
L1D-rfo_hit : 5967026
L1D-rfo_miss : 286697
L1D-prefetch_access : 6869142
L1D-prefetch_hit : 6237995
L1D-prefetch_miss : 631147
L1D-writeback_access : 0
L1D-writeback_hit : 0
L1D-writeback_miss : 0
L1D-prefetch_requested : 7252522
L1D-prefetch_issued : 7117071
L1D-prefetch_useful : 153531
L1D-prefetch_useless : 477627
L1D-Avg_miss_latency : 23.9533
L1D-Morteza_fill_l2_prefetches : 0

L1I TOTAL     ACCESS:   19032011  HIT:   14642601  MISS:    4389410
L1I LOAD      ACCESS:    9260846  HIT:    8310763  MISS:     950083
L1I RFO       ACCESS:          0  HIT:          0  MISS:          0
L1I PREFETCH  ACCESS:    9771165  HIT:    6331838  MISS:    3439327
L1I WRITEBACK ACCESS:          0  HIT:          0  MISS:          0
L1I PREFETCH  REQUESTED:   11253961  ISSUED:   11239665  USEFUL:    2218082  USELESS:    1221282
L1I AVERAGE MISS LATENCY: 16.2196 cycles
L1I

SHEET
L1I-total_access : 19032011
L1I-total_hit : 14642601
L1I-total_miss : 4389410
L1I-load_access : 9260846
L1I-load_hit : 8310763
L1I-load_miss : 950083
L1I-rfo_access : 0
L1I-rfo_hit : 0
L1I-rfo_miss : 0
L1I-prefetch_access : 9771165
L1I-prefetch_hit : 6331838
L1I-prefetch_miss : 3439327
L1I-writeback_access : 0
L1I-writeback_hit : 0
L1I-writeback_miss : 0
L1I-prefetch_requested : 11253961
L1I-prefetch_issued : 11239665
L1I-prefetch_useful : 2218082
L1I-prefetch_useless : 1221282
L1I-Avg_miss_latency : 16.2196
L1I-Morteza_fill_l2_prefetches : 0

L2C TOTAL     ACCESS:    8140031  HIT:    7279467  MISS:     860564
L2C LOAD      ACCESS:    1196268  HIT:    1003397  MISS:     192871
L2C RFO       ACCESS:     284696  HIT:     186247  MISS:      98449
L2C PREFETCH  ACCESS:    6097912  HIT:    5536271  MISS:     561641
L2C WRITEBACK ACCESS:     561155  HIT:     553552  MISS:       7603
L2C PREFETCH  REQUESTED:    6836541  ISSUED:    6827468  USEFUL:      38093  USELESS:     522600
L2C AVERAGE MISS LATENCY: 38.6816 cycles
L2C

SHEET
L2C-total_access : 8140031
L2C-total_hit : 7279467
L2C-total_miss : 860564
L2C-load_access : 1196268
L2C-load_hit : 1003397
L2C-load_miss : 192871
L2C-rfo_access : 284696
L2C-rfo_hit : 186247
L2C-rfo_miss : 98449
L2C-prefetch_access : 6097912
L2C-prefetch_hit : 5536271
L2C-prefetch_miss : 561641
L2C-writeback_access : 561155
L2C-writeback_hit : 553552
L2C-writeback_miss : 7603
L2C-prefetch_requested : 6836541
L2C-prefetch_issued : 6827468
L2C-prefetch_useful : 38093
L2C-prefetch_useless : 522600
L2C-Avg_miss_latency : 38.6816
L2C-Morteza_fill_l2_prefetches : 1587379

LLC TOTAL     ACCESS:    2820315  HIT:    2785332  MISS:      34983
LLC LOAD      ACCESS:     192727  HIT:     189089  MISS:       3638
LLC RFO       ACCESS:      98445  HIT:      83984  MISS:      14461
LLC PREFETCH  ACCESS:    2360369  HIT:    2343739  MISS:      16630
LLC WRITEBACK ACCESS:     168774  HIT:     168520  MISS:        254
LLC PREFETCH  REQUESTED:          0  ISSUED:          0  USEFUL:       1088  USELESS:      15216
LLC AVERAGE MISS LATENCY: 189.589 cycles
LLC

SHEET
LLC-total_access : 2820315
LLC-total_hit : 2785332
LLC-total_miss : 34983
LLC-load_access : 192727
LLC-load_hit : 189089
LLC-load_miss : 3638
LLC-rfo_access : 98445
LLC-rfo_hit : 83984
LLC-rfo_miss : 14461
LLC-prefetch_access : 2360369
LLC-prefetch_hit : 2343739
LLC-prefetch_miss : 16630
LLC-writeback_access : 168774
LLC-writeback_hit : 168520
LLC-writeback_miss : 254
LLC-prefetch_requested : 0
LLC-prefetch_issued : 0
LLC-prefetch_useful : 1088
LLC-prefetch_useless : 15216
LLC-Avg_miss_latency : 189.589
LLC-Morteza_fill_l2_prefetches : 1809150

Major fault: 0 Minor fault: 2232



Printing Logs
statHeadFound: 1892378
statHeadMissing: 2324522
statStreamBufferHit: 9990626
statPrefetchEntryFound: 8199394
statCompactorMatch: 11006334
statStreamTrackerLookup: 14207526
statRecord: 3201192
statGetPointer: 4216900
statEnqueuePrefetch: 22409571
statPrefetchQueueIsFull: 1564
StreamBufferHitRate: 0.703193
Regions' size: 2395
next_region_correct: 2121337
next_region_wrong: 1077452
next_region_correct_prediction: 0.663169
statStreamBufferLookups: 142075260
statL1iLookups: 179276568
statCompactorLookups: 227320416
morteza: start

SHEET
mana_table_access_counter : 6725516
mana_table_multiple_access_counter : 6572955
hobp_table_access_counter : 54747511
sab_access_counter : 18190020
srq_access_counter : 16355519

morteza: end
CPU 0 L1D next line prefetcher final stats

DRAM Statistics
 CHANNEL 0
 RQ ROW_BUFFER_HIT:      12251  ROW_BUFFER_MISS:      22466
 DBUS_CONGESTED:      24132
 WQ ROW_BUFFER_HIT:       1568  ROW_BUFFER_MISS:      14458  FULL:          0

 AVG_CONGESTED_CYCLE: 6

CPU 0 Branch Prediction Accuracy: 99.822% MPKI: 0.32584 Average ROB Occupancy at Mispredict: 150.35

Branch types
NOT_BRANCH: 40848545 81.6971%
BRANCH_DIRECT_JUMP: 522045 1.04409%
BRANCH_INDIRECT: 204034 0.408068%
BRANCH_CONDITIONAL: 6212957 12.4259%
BRANCH_DIRECT_CALL: 932390 1.86478%
BRANCH_INDIRECT_CALL: 173764 0.347528%
BRANCH_RETURN: 1106151 2.2123%
BRANCH_OTHER: 0 0%

