Initialize SIGNATURE TABLE
ST_SET: 1
ST_WAY: 256
ST_TAG_BIT: 16
ST_TAG_MASK: ffff

Initialize PATTERN TABLE
PT_SET: 512
PT_WAY: 4
SIG_DELTA_BIT: 7
C_SIG_BIT: 4
C_DELTA_BIT: 4

Initialize PREFETCH FILTER
FILTER_SET: 1024
MANA initialize 
tds: 2 tdm: 4
size MANA SINGLE: 74 KB
size MANA NULTIPLE: 43 KB
size HOBPT: 5 KB
size SRQ: 0.0644531 KB
size SABs: 0.0402832 KB
size prefetch queue: 0.453125 KB
total: 122.558 KB

*** ChampSim Multicore Out-of-Order Simulator ***

Warmup Instructions: 50000000
Simulation Instructions: 50000000
Number of CPUs: 1
LLC sets: 2048
LLC ways: 16
Off-chip DRAM Size: 4096 MB Channels: 1 Width: 64-bit Data Rate: 3200 MT/s

CPU 0 runs /home/mbaradaran/ChampSim/dpc3_traces/server_029.champsimtrace.xz
CPU 0 L1D next line prefetcher
Heartbeat CPU 0 instructions: 10000003 cycles: 3498001 heartbeat IPC: 2.85878 cumulative IPC: 2.85878 (Simulation time: 0 hr 1 min 31 sec) 
Heartbeat CPU 0 instructions: 20000002 cycles: 6995593 heartbeat IPC: 2.85911 cumulative IPC: 2.85894 (Simulation time: 0 hr 2 min 58 sec) 
Heartbeat CPU 0 instructions: 30000003 cycles: 10494398 heartbeat IPC: 2.85812 cumulative IPC: 2.85867 (Simulation time: 0 hr 4 min 17 sec) 
Heartbeat CPU 0 instructions: 40000000 cycles: 14000383 heartbeat IPC: 2.85226 cumulative IPC: 2.85706 (Simulation time: 0 hr 5 min 38 sec) 
Heartbeat CPU 0 instructions: 50000000 cycles: 17505892 heartbeat IPC: 2.85265 cumulative IPC: 2.85618 (Simulation time: 0 hr 7 min 0 sec) 

Warmup complete CPU 0 instructions: 50000004 cycles: 17505893 (Simulation time: 0 hr 7 min 0 sec) 

Heartbeat CPU 0 instructions: 60000000 cycles: 25435158 heartbeat IPC: 1.26115 cumulative IPC: 1.26115 (Simulation time: 0 hr 8 min 22 sec) 
Heartbeat CPU 0 instructions: 70000003 cycles: 33518913 heartbeat IPC: 1.23705 cumulative IPC: 1.24898 (Simulation time: 0 hr 9 min 46 sec) 
Heartbeat CPU 0 instructions: 80000002 cycles: 41429660 heartbeat IPC: 1.2641 cumulative IPC: 1.25398 (Simulation time: 0 hr 11 min 4 sec) 
*** Reached end of trace for Core: 0 Repeating trace: /home/mbaradaran/ChampSim/dpc3_traces/server_029.champsimtrace.xz
Heartbeat CPU 0 instructions: 90000000 cycles: 49254182 heartbeat IPC: 1.27803 cumulative IPC: 1.25991 (Simulation time: 0 hr 12 min 26 sec) 
Heartbeat CPU 0 instructions: 100000000 cycles: 57082288 heartbeat IPC: 1.27745 cumulative IPC: 1.26338 (Simulation time: 0 hr 13 min 49 sec) 
Finished CPU 0 instructions: 50000000 cycles: 39576396 cumulative IPC: 1.26338 (Simulation time: 0 hr 13 min 49 sec) 

ChampSim completed all CPUs

Region of Interest Statistics

CPU 0 cumulative IPC: 1.26338 instructions: 50000000 cycles: 39576396

SHEET
IPC : 1.26338

L1D TOTAL     ACCESS:   19503336  HIT:   17406779  MISS:    2096557
L1D LOAD      ACCESS:    6940741  HIT:    5879128  MISS:    1061613
L1D RFO       ACCESS:    6129297  HIT:    5844064  MISS:     285233
L1D PREFETCH  ACCESS:    6433298  HIT:    5683587  MISS:     749711
L1D WRITEBACK ACCESS:          0  HIT:          0  MISS:          0
L1D PREFETCH  REQUESTED:    7003721  ISSUED:    6905889  USEFUL:     179959  USELESS:     569743
L1D AVERAGE MISS LATENCY: 22.1105 cycles
L1D

SHEET
L1D-total_access : 19503336
L1D-total_hit : 17406779
L1D-total_miss : 2096557
L1D-load_access : 6940741
L1D-load_hit : 5879128
L1D-load_miss : 1061613
L1D-rfo_access : 6129297
L1D-rfo_hit : 5844064
L1D-rfo_miss : 285233
L1D-prefetch_access : 6433298
L1D-prefetch_hit : 5683587
L1D-prefetch_miss : 749711
L1D-writeback_access : 0
L1D-writeback_hit : 0
L1D-writeback_miss : 0
L1D-prefetch_requested : 7003721
L1D-prefetch_issued : 6905889
L1D-prefetch_useful : 179959
L1D-prefetch_useless : 569743
L1D-Avg_miss_latency : 22.1105
L1D-Morteza_fill_l2_prefetches : 0

L1I TOTAL     ACCESS:   18964827  HIT:   14563427  MISS:    4401400
L1I LOAD      ACCESS:    9540513  HIT:    8572225  MISS:     968288
L1I RFO       ACCESS:          0  HIT:          0  MISS:          0
L1I PREFETCH  ACCESS:    9424314  HIT:    5991202  MISS:    3433112
L1I WRITEBACK ACCESS:          0  HIT:          0  MISS:          0
L1I PREFETCH  REQUESTED:   10871310  ISSUED:   10853171  USEFUL:    2377239  USELESS:    1055897
L1I AVERAGE MISS LATENCY: 15.6234 cycles
L1I

SHEET
L1I-total_access : 18964827
L1I-total_hit : 14563427
L1I-total_miss : 4401400
L1I-load_access : 9540513
L1I-load_hit : 8572225
L1I-load_miss : 968288
L1I-rfo_access : 0
L1I-rfo_hit : 0
L1I-rfo_miss : 0
L1I-prefetch_access : 9424314
L1I-prefetch_hit : 5991202
L1I-prefetch_miss : 3433112
L1I-writeback_access : 0
L1I-writeback_hit : 0
L1I-writeback_miss : 0
L1I-prefetch_requested : 10871310
L1I-prefetch_issued : 10853171
L1I-prefetch_useful : 2377239
L1I-prefetch_useless : 1055897
L1I-Avg_miss_latency : 15.6234
L1I-Morteza_fill_l2_prefetches : 0

L2C TOTAL     ACCESS:    9006365  HIT:    8198477  MISS:     807888
L2C LOAD      ACCESS:    1392086  HIT:    1190778  MISS:     201308
L2C RFO       ACCESS:     283572  HIT:     224883  MISS:      58689
L2C PREFETCH  ACCESS:    6720396  HIT:    6178071  MISS:     542325
L2C WRITEBACK ACCESS:     610311  HIT:     604745  MISS:       5566
L2C PREFETCH  REQUESTED:    8336501  ISSUED:    8308705  USEFUL:      28196  USELESS:     513256
L2C AVERAGE MISS LATENCY: 41.3805 cycles
L2C

SHEET
L2C-total_access : 9006365
L2C-total_hit : 8198477
L2C-total_miss : 807888
L2C-load_access : 1392086
L2C-load_hit : 1190778
L2C-load_miss : 201308
L2C-rfo_access : 283572
L2C-rfo_hit : 224883
L2C-rfo_miss : 58689
L2C-prefetch_access : 6720396
L2C-prefetch_hit : 6178071
L2C-prefetch_miss : 542325
L2C-writeback_access : 610311
L2C-writeback_hit : 604745
L2C-writeback_miss : 5566
L2C-prefetch_requested : 8336501
L2C-prefetch_issued : 8308705
L2C-prefetch_useful : 28196
L2C-prefetch_useless : 513256
L2C-Avg_miss_latency : 41.3805
L2C-Morteza_fill_l2_prefetches : 1982093

LLC TOTAL     ACCESS:    3170562  HIT:    3093126  MISS:      77436
LLC LOAD      ACCESS:     201191  HIT:     183781  MISS:      17410
LLC RFO       ACCESS:      58689  HIT:      54957  MISS:       3732
LLC PREFETCH  ACCESS:    2799379  HIT:    2743754  MISS:      55625
LLC WRITEBACK ACCESS:     111303  HIT:     110634  MISS:        669
LLC PREFETCH  REQUESTED:          0  ISSUED:          0  USEFUL:       2723  USELESS:      52898
LLC AVERAGE MISS LATENCY: 160.312 cycles
LLC

SHEET
LLC-total_access : 3170562
LLC-total_hit : 3093126
LLC-total_miss : 77436
LLC-load_access : 201191
LLC-load_hit : 183781
LLC-load_miss : 17410
LLC-rfo_access : 58689
LLC-rfo_hit : 54957
LLC-rfo_miss : 3732
LLC-prefetch_access : 2799379
LLC-prefetch_hit : 2743754
LLC-prefetch_miss : 55625
LLC-writeback_access : 111303
LLC-writeback_hit : 110634
LLC-writeback_miss : 669
LLC-prefetch_requested : 0
LLC-prefetch_issued : 0
LLC-prefetch_useful : 2723
LLC-prefetch_useless : 52898
LLC-Avg_miss_latency : 160.312
LLC-Morteza_fill_l2_prefetches : 2243224

Major fault: 0 Minor fault: 5988



Printing Logs
statHeadFound: 1772291
statHeadMissing: 1760692
statStreamBufferHit: 10887734
statPrefetchEntryFound: 7956999
statCompactorMatch: 11106197
statStreamTrackerLookup: 14420717
statRecord: 3314520
statGetPointer: 3532983
statEnqueuePrefetch: 21706779
statPrefetchQueueIsFull: 140
StreamBufferHitRate: 0.755006
Regions' size: 2143
next_region_correct: 2278148
next_region_wrong: 1034221
next_region_correct_prediction: 0.68777
statStreamBufferLookups: 144207170
statL1iLookups: 173654232
statCompactorLookups: 230731472
morteza: start

SHEET
mana_table_access_counter : 6714960
mana_table_multiple_access_counter : 6332231
hobp_table_access_counter : 49484498
sab_access_counter : 18844733
srq_access_counter : 16701982

morteza: end
CPU 0 L1D next line prefetcher final stats

DRAM Statistics
 CHANNEL 0
 RQ ROW_BUFFER_HIT:      23005  ROW_BUFFER_MISS:      53751
 DBUS_CONGESTED:      31362
 WQ ROW_BUFFER_HIT:        612  ROW_BUFFER_MISS:       4220  FULL:          0

 AVG_CONGESTED_CYCLE: 5

CPU 0 Branch Prediction Accuracy: 99.7245% MPKI: 0.51862 Average ROB Occupancy at Mispredict: 134.169

Branch types
NOT_BRANCH: 40586675 81.1733%
BRANCH_DIRECT_JUMP: 525212 1.05042%
BRANCH_INDIRECT: 166360 0.33272%
BRANCH_CONDITIONAL: 6373106 12.7462%
BRANCH_DIRECT_CALL: 989264 1.97853%
BRANCH_INDIRECT_CALL: 184984 0.369968%
BRANCH_RETURN: 1174251 2.3485%
BRANCH_OTHER: 0 0%

