Initialize SIGNATURE TABLE
ST_SET: 1
ST_WAY: 256
ST_TAG_BIT: 16
ST_TAG_MASK: ffff

Initialize PATTERN TABLE
PT_SET: 512
PT_WAY: 4
SIG_DELTA_BIT: 7
C_SIG_BIT: 4
C_DELTA_BIT: 4

Initialize PREFETCH FILTER
FILTER_SET: 1024
MANA initialize 
tds: 2 tdm: 4
size MANA SINGLE: 74 KB
size MANA NULTIPLE: 43 KB
size HOBPT: 5 KB
size SRQ: 0.0644531 KB
size SABs: 0.0402832 KB
size prefetch queue: 0.453125 KB
total: 122.558 KB

*** ChampSim Multicore Out-of-Order Simulator ***

Warmup Instructions: 50000000
Simulation Instructions: 50000000
Number of CPUs: 1
LLC sets: 2048
LLC ways: 16
Off-chip DRAM Size: 4096 MB Channels: 1 Width: 64-bit Data Rate: 3200 MT/s

CPU 0 runs /home/mbaradaran/ChampSim/dpc3_traces/server_038.champsimtrace.xz
CPU 0 L1D next line prefetcher
Heartbeat CPU 0 instructions: 10000001 cycles: 3322675 heartbeat IPC: 3.00962 cumulative IPC: 3.00962 (Simulation time: 0 hr 1 min 23 sec) 
Heartbeat CPU 0 instructions: 20000003 cycles: 6648714 heartbeat IPC: 3.00658 cumulative IPC: 3.0081 (Simulation time: 0 hr 2 min 51 sec) 
Heartbeat CPU 0 instructions: 30000003 cycles: 9970470 heartbeat IPC: 3.01046 cumulative IPC: 3.00889 (Simulation time: 0 hr 4 min 14 sec) 
Heartbeat CPU 0 instructions: 40000001 cycles: 13296524 heartbeat IPC: 3.00657 cumulative IPC: 3.00831 (Simulation time: 0 hr 5 min 42 sec) 
Heartbeat CPU 0 instructions: 50000001 cycles: 16620732 heartbeat IPC: 3.00824 cumulative IPC: 3.00829 (Simulation time: 0 hr 7 min 6 sec) 

Warmup complete CPU 0 instructions: 50000001 cycles: 16620732 (Simulation time: 0 hr 7 min 6 sec) 

Heartbeat CPU 0 instructions: 60000002 cycles: 23073268 heartbeat IPC: 1.54978 cumulative IPC: 1.54978 (Simulation time: 0 hr 8 min 26 sec) 
Heartbeat CPU 0 instructions: 70000001 cycles: 29488239 heartbeat IPC: 1.55885 cumulative IPC: 1.5543 (Simulation time: 0 hr 9 min 47 sec) 
Heartbeat CPU 0 instructions: 80000000 cycles: 35911658 heartbeat IPC: 1.5568 cumulative IPC: 1.55514 (Simulation time: 0 hr 11 min 8 sec) 
Heartbeat CPU 0 instructions: 90000001 cycles: 42341355 heartbeat IPC: 1.55528 cumulative IPC: 1.55517 (Simulation time: 0 hr 12 min 27 sec) 
*** Reached end of trace for Core: 0 Repeating trace: /home/mbaradaran/ChampSim/dpc3_traces/server_038.champsimtrace.xz
Heartbeat CPU 0 instructions: 100000002 cycles: 48789665 heartbeat IPC: 1.55079 cumulative IPC: 1.55429 (Simulation time: 0 hr 13 min 43 sec) 
Finished CPU 0 instructions: 50000001 cycles: 32168933 cumulative IPC: 1.55429 (Simulation time: 0 hr 13 min 43 sec) 

ChampSim completed all CPUs

Region of Interest Statistics

CPU 0 cumulative IPC: 1.55429 instructions: 50000001 cycles: 32168933

SHEET
IPC : 1.55429

L1D TOTAL     ACCESS:   18753879  HIT:   17771279  MISS:     982600
L1D LOAD      ACCESS:    6391100  HIT:    5898124  MISS:     492976
L1D RFO       ACCESS:    6211208  HIT:    6146504  MISS:      64704
L1D PREFETCH  ACCESS:    6151571  HIT:    5726651  MISS:     424920
L1D WRITEBACK ACCESS:          0  HIT:          0  MISS:          0
L1D PREFETCH  REQUESTED:    6427329  ISSUED:    6274818  USEFUL:     118040  USELESS:     306882
L1D AVERAGE MISS LATENCY: 29.1564 cycles
L1D

SHEET
L1D-total_access : 18753879
L1D-total_hit : 17771279
L1D-total_miss : 982600
L1D-load_access : 6391100
L1D-load_hit : 5898124
L1D-load_miss : 492976
L1D-rfo_access : 6211208
L1D-rfo_hit : 6146504
L1D-rfo_miss : 64704
L1D-prefetch_access : 6151571
L1D-prefetch_hit : 5726651
L1D-prefetch_miss : 424920
L1D-writeback_access : 0
L1D-writeback_hit : 0
L1D-writeback_miss : 0
L1D-prefetch_requested : 6427329
L1D-prefetch_issued : 6274818
L1D-prefetch_useful : 118040
L1D-prefetch_useless : 306882
L1D-Avg_miss_latency : 29.1564
L1D-Morteza_fill_l2_prefetches : 0

L1I TOTAL     ACCESS:   19646470  HIT:   14754157  MISS:    4892313
L1I LOAD      ACCESS:    9239194  HIT:    8459335  MISS:     779859
L1I RFO       ACCESS:          0  HIT:          0  MISS:          0
L1I PREFETCH  ACCESS:   10407276  HIT:    6294822  MISS:    4112454
L1I WRITEBACK ACCESS:          0  HIT:          0  MISS:          0
L1I PREFETCH  REQUESTED:   11683235  ISSUED:   11674472  USEFUL:    3641434  USELESS:     471034
L1I AVERAGE MISS LATENCY: 13.7109 cycles
L1I

SHEET
L1I-total_access : 19646470
L1I-total_hit : 14754157
L1I-total_miss : 4892313
L1I-load_access : 9239194
L1I-load_hit : 8459335
L1I-load_miss : 779859
L1I-rfo_access : 0
L1I-rfo_hit : 0
L1I-rfo_miss : 0
L1I-prefetch_access : 10407276
L1I-prefetch_hit : 6294822
L1I-prefetch_miss : 4112454
L1I-writeback_access : 0
L1I-writeback_hit : 0
L1I-writeback_miss : 0
L1I-prefetch_requested : 11683235
L1I-prefetch_issued : 11674472
L1I-prefetch_useful : 3641434
L1I-prefetch_useless : 471034
L1I-Avg_miss_latency : 13.7109
L1I-Morteza_fill_l2_prefetches : 0

L2C TOTAL     ACCESS:    8545981  HIT:    8239848  MISS:     306133
L2C LOAD      ACCESS:     786904  HIT:     650503  MISS:     136401
L2C RFO       ACCESS:      64475  HIT:      36609  MISS:      27866
L2C PREFETCH  ACCESS:    7402799  HIT:    7261972  MISS:     140827
L2C WRITEBACK ACCESS:     291803  HIT:     290764  MISS:       1039
L2C PREFETCH  REQUESTED:    8116756  ISSUED:    8086395  USEFUL:       6466  USELESS:     134276
L2C AVERAGE MISS LATENCY: 46.8306 cycles
L2C

SHEET
L2C-total_access : 8545981
L2C-total_hit : 8239848
L2C-total_miss : 306133
L2C-load_access : 786904
L2C-load_hit : 650503
L2C-load_miss : 136401
L2C-rfo_access : 64475
L2C-rfo_hit : 36609
L2C-rfo_miss : 27866
L2C-prefetch_access : 7402799
L2C-prefetch_hit : 7261972
L2C-prefetch_miss : 140827
L2C-writeback_access : 291803
L2C-writeback_hit : 290764
L2C-writeback_miss : 1039
L2C-prefetch_requested : 8116756
L2C-prefetch_issued : 8086395
L2C-prefetch_useful : 6466
L2C-prefetch_useless : 134276
L2C-Avg_miss_latency : 46.8306
L2C-Morteza_fill_l2_prefetches : 2423024

LLC TOTAL     ACCESS:    2128409  HIT:    2065090  MISS:      63319
LLC LOAD      ACCESS:     136346  HIT:     123685  MISS:      12661
LLC RFO       ACCESS:      27864  HIT:      22535  MISS:       5329
LLC PREFETCH  ACCESS:    1824770  HIT:    1780076  MISS:      44694
LLC WRITEBACK ACCESS:     139429  HIT:     138794  MISS:        635
LLC PREFETCH  REQUESTED:          0  ISSUED:          0  USEFUL:       3479  USELESS:      39339
LLC AVERAGE MISS LATENCY: 175.398 cycles
LLC

SHEET
LLC-total_access : 2128409
LLC-total_hit : 2065090
LLC-total_miss : 63319
LLC-load_access : 136346
LLC-load_hit : 123685
LLC-load_miss : 12661
LLC-rfo_access : 27864
LLC-rfo_hit : 22535
LLC-rfo_miss : 5329
LLC-prefetch_access : 1824770
LLC-prefetch_hit : 1780076
LLC-prefetch_miss : 44694
LLC-writeback_access : 139429
LLC-writeback_hit : 138794
LLC-writeback_miss : 635
LLC-prefetch_requested : 0
LLC-prefetch_issued : 0
LLC-prefetch_useful : 3479
LLC-prefetch_useless : 39339
LLC-Avg_miss_latency : 175.398
LLC-Morteza_fill_l2_prefetches : 1657246

Major fault: 0 Minor fault: 5581



Printing Logs
statHeadFound: 1443494
statHeadMissing: 1440837
statStreamBufferHit: 11633476
statPrefetchEntryFound: 7580017
statCompactorMatch: 10871325
statStreamTrackerLookup: 14517807
statRecord: 3646482
statGetPointer: 2884331
statEnqueuePrefetch: 23262805
statPrefetchQueueIsFull: 0
StreamBufferHitRate: 0.801325
Regions' size: 1004
next_region_correct: 2835777
next_region_wrong: 809693
next_region_correct_prediction: 0.777891
statStreamBufferLookups: 145178070
statL1iLookups: 186102440
statCompactorLookups: 232284912
morteza: start

SHEET
mana_table_access_counter : 7382577
mana_table_multiple_access_counter : 5288782
hobp_table_access_counter : 45242866
sab_access_counter : 19213493
srq_access_counter : 17363785

morteza: end
CPU 0 L1D next line prefetcher final stats

DRAM Statistics
 CHANNEL 0
 RQ ROW_BUFFER_HIT:      13000  ROW_BUFFER_MISS:      49683
 DBUS_CONGESTED:      28609
 WQ ROW_BUFFER_HIT:       1344  ROW_BUFFER_MISS:      12394  FULL:          0

 AVG_CONGESTED_CYCLE: 5

CPU 0 Branch Prediction Accuracy: 99.9279% MPKI: 0.12968 Average ROB Occupancy at Mispredict: 161.403

Branch types
NOT_BRANCH: 41006342 82.0127%
BRANCH_DIRECT_JUMP: 541914 1.08383%
BRANCH_INDIRECT: 59690 0.11938%
BRANCH_CONDITIONAL: 5915848 11.8317%
BRANCH_DIRECT_CALL: 1003589 2.00718%
BRANCH_INDIRECT_CALL: 234499 0.468998%
BRANCH_RETURN: 1238071 2.47614%
BRANCH_OTHER: 0 0%

