Initialize SIGNATURE TABLE
ST_SET: 1
ST_WAY: 256
ST_TAG_BIT: 16
ST_TAG_MASK: ffff

Initialize PATTERN TABLE
PT_SET: 512
PT_WAY: 4
SIG_DELTA_BIT: 7
C_SIG_BIT: 4
C_DELTA_BIT: 4

Initialize PREFETCH FILTER
FILTER_SET: 1024
MANA initialize 
tds: 2 tdm: 4
size MANA SINGLE: 74 KB
size MANA NULTIPLE: 43 KB
size HOBPT: 5 KB
size SRQ: 0.0644531 KB
size SABs: 0.0402832 KB
size prefetch queue: 0.453125 KB
total: 122.558 KB

*** ChampSim Multicore Out-of-Order Simulator ***

Warmup Instructions: 50000000
Simulation Instructions: 50000000
Number of CPUs: 1
LLC sets: 2048
LLC ways: 16
Off-chip DRAM Size: 4096 MB Channels: 1 Width: 64-bit Data Rate: 3200 MT/s

CPU 0 runs /home/mbaradaran/ChampSim/dpc3_traces/server_037.champsimtrace.xz
CPU 0 L1D next line prefetcher
Heartbeat CPU 0 instructions: 10000001 cycles: 3321522 heartbeat IPC: 3.01067 cumulative IPC: 3.01067 (Simulation time: 0 hr 1 min 31 sec) 
Heartbeat CPU 0 instructions: 20000002 cycles: 6640392 heartbeat IPC: 3.01307 cumulative IPC: 3.01187 (Simulation time: 0 hr 3 min 0 sec) 
Heartbeat CPU 0 instructions: 30000003 cycles: 10007147 heartbeat IPC: 2.97022 cumulative IPC: 2.99786 (Simulation time: 0 hr 4 min 27 sec) 
Heartbeat CPU 0 instructions: 40000000 cycles: 13327968 heartbeat IPC: 3.0113 cumulative IPC: 3.00121 (Simulation time: 0 hr 5 min 55 sec) 
Heartbeat CPU 0 instructions: 50000003 cycles: 16647892 heartbeat IPC: 3.01212 cumulative IPC: 3.00338 (Simulation time: 0 hr 7 min 23 sec) 

Warmup complete CPU 0 instructions: 50000003 cycles: 16647892 (Simulation time: 0 hr 7 min 23 sec) 

Heartbeat CPU 0 instructions: 60000001 cycles: 23078149 heartbeat IPC: 1.55515 cumulative IPC: 1.55515 (Simulation time: 0 hr 8 min 46 sec) 
Heartbeat CPU 0 instructions: 70000000 cycles: 29621278 heartbeat IPC: 1.52832 cumulative IPC: 1.54162 (Simulation time: 0 hr 10 min 8 sec) 
Heartbeat CPU 0 instructions: 80000000 cycles: 36052343 heartbeat IPC: 1.55495 cumulative IPC: 1.54604 (Simulation time: 0 hr 11 min 32 sec) 
Heartbeat CPU 0 instructions: 90000002 cycles: 42492862 heartbeat IPC: 1.55267 cumulative IPC: 1.54769 (Simulation time: 0 hr 12 min 53 sec) 
*** Reached end of trace for Core: 0 Repeating trace: /home/mbaradaran/ChampSim/dpc3_traces/server_037.champsimtrace.xz
Heartbeat CPU 0 instructions: 100000000 cycles: 48944270 heartbeat IPC: 1.55005 cumulative IPC: 1.54816 (Simulation time: 0 hr 14 min 13 sec) 
Finished CPU 0 instructions: 50000001 cycles: 32296379 cumulative IPC: 1.54816 (Simulation time: 0 hr 14 min 13 sec) 

ChampSim completed all CPUs

Region of Interest Statistics

CPU 0 cumulative IPC: 1.54816 instructions: 50000001 cycles: 32296379

SHEET
IPC : 1.54816

L1D TOTAL     ACCESS:   18754741  HIT:   17776565  MISS:     978176
L1D LOAD      ACCESS:    6392954  HIT:    5902612  MISS:     490342
L1D RFO       ACCESS:    6206784  HIT:    6142161  MISS:      64623
L1D PREFETCH  ACCESS:    6155003  HIT:    5731792  MISS:     423211
L1D WRITEBACK ACCESS:          0  HIT:          0  MISS:          0
L1D PREFETCH  REQUESTED:    6430482  ISSUED:    6277563  USEFUL:     118023  USELESS:     305193
L1D AVERAGE MISS LATENCY: 29.516 cycles
L1D

SHEET
L1D-total_access : 18754741
L1D-total_hit : 17776565
L1D-total_miss : 978176
L1D-load_access : 6392954
L1D-load_hit : 5902612
L1D-load_miss : 490342
L1D-rfo_access : 6206784
L1D-rfo_hit : 6142161
L1D-rfo_miss : 64623
L1D-prefetch_access : 6155003
L1D-prefetch_hit : 5731792
L1D-prefetch_miss : 423211
L1D-writeback_access : 0
L1D-writeback_hit : 0
L1D-writeback_miss : 0
L1D-prefetch_requested : 6430482
L1D-prefetch_issued : 6277563
L1D-prefetch_useful : 118023
L1D-prefetch_useless : 305193
L1D-Avg_miss_latency : 29.516
L1D-Morteza_fill_l2_prefetches : 0

L1I TOTAL     ACCESS:   19380991  HIT:   14491385  MISS:    4889606
L1I LOAD      ACCESS:    9243530  HIT:    8448639  MISS:     794891
L1I RFO       ACCESS:          0  HIT:          0  MISS:          0
L1I PREFETCH  ACCESS:   10137461  HIT:    6042746  MISS:    4094715
L1I WRITEBACK ACCESS:          0  HIT:          0  MISS:          0
L1I PREFETCH  REQUESTED:   11388373  ISSUED:   11381052  USEFUL:    3629353  USELESS:     465392
L1I AVERAGE MISS LATENCY: 13.6484 cycles
L1I

SHEET
L1I-total_access : 19380991
L1I-total_hit : 14491385
L1I-total_miss : 4889606
L1I-load_access : 9243530
L1I-load_hit : 8448639
L1I-load_miss : 794891
L1I-rfo_access : 0
L1I-rfo_hit : 0
L1I-rfo_miss : 0
L1I-prefetch_access : 10137461
L1I-prefetch_hit : 6042746
L1I-prefetch_miss : 4094715
L1I-writeback_access : 0
L1I-writeback_hit : 0
L1I-writeback_miss : 0
L1I-prefetch_requested : 11388373
L1I-prefetch_issued : 11381052
L1I-prefetch_useful : 3629353
L1I-prefetch_useless : 465392
L1I-Avg_miss_latency : 13.6484
L1I-Morteza_fill_l2_prefetches : 0

L2C TOTAL     ACCESS:    8508663  HIT:    8194150  MISS:     314513
L2C LOAD      ACCESS:     782747  HIT:     639757  MISS:     142990
L2C RFO       ACCESS:      64330  HIT:      36936  MISS:      27394
L2C PREFETCH  ACCESS:    7371894  HIT:    7228724  MISS:     143170
L2C WRITEBACK ACCESS:     289692  HIT:     288733  MISS:        959
L2C PREFETCH  REQUESTED:    8141258  ISSUED:    8107453  USEFUL:       6022  USELESS:     136951
L2C AVERAGE MISS LATENCY: 46.4231 cycles
L2C

SHEET
L2C-total_access : 8508663
L2C-total_hit : 8194150
L2C-total_miss : 314513
L2C-load_access : 782747
L2C-load_hit : 639757
L2C-load_miss : 142990
L2C-rfo_access : 64330
L2C-rfo_hit : 36936
L2C-rfo_miss : 27394
L2C-prefetch_access : 7371894
L2C-prefetch_hit : 7228724
L2C-prefetch_miss : 143170
L2C-writeback_access : 289692
L2C-writeback_hit : 288733
L2C-writeback_miss : 959
L2C-prefetch_requested : 8141258
L2C-prefetch_issued : 8107453
L2C-prefetch_useful : 6022
L2C-prefetch_useless : 136951
L2C-Avg_miss_latency : 46.4231
L2C-Morteza_fill_l2_prefetches : 2394139

LLC TOTAL     ACCESS:    2135417  HIT:    2069578  MISS:      65839
LLC LOAD      ACCESS:     142956  HIT:     129697  MISS:      13259
LLC RFO       ACCESS:      27394  HIT:      22457  MISS:       4937
LLC PREFETCH  ACCESS:    1820288  HIT:    1773261  MISS:      47027
LLC WRITEBACK ACCESS:     144779  HIT:     144163  MISS:        616
LLC PREFETCH  REQUESTED:          0  ISSUED:          0  USEFUL:       4268  USELESS:      40678
LLC AVERAGE MISS LATENCY: 173.077 cycles
LLC

SHEET
LLC-total_access : 2135417
LLC-total_hit : 2069578
LLC-total_miss : 65839
LLC-load_access : 142956
LLC-load_hit : 129697
LLC-load_miss : 13259
LLC-rfo_access : 27394
LLC-rfo_hit : 22457
LLC-rfo_miss : 4937
LLC-prefetch_access : 1820288
LLC-prefetch_hit : 1773261
LLC-prefetch_miss : 47027
LLC-writeback_access : 144779
LLC-writeback_hit : 144163
LLC-writeback_miss : 616
LLC-prefetch_requested : 0
LLC-prefetch_issued : 0
LLC-prefetch_useful : 4268
LLC-prefetch_useless : 40678
LLC-Avg_miss_latency : 173.077
LLC-Morteza_fill_l2_prefetches : 1648416

Major fault: 0 Minor fault: 5711



Printing Logs
statHeadFound: 1381631
statHeadMissing: 1542975
statStreamBufferHit: 11568390
statPrefetchEntryFound: 7413439
statCompactorMatch: 10859104
statStreamTrackerLookup: 14492996
statRecord: 3633892
statGetPointer: 2924606
statEnqueuePrefetch: 22716573
statPrefetchQueueIsFull: 0
StreamBufferHitRate: 0.798206
Regions' size: 1247
next_region_correct: 2826575
next_region_wrong: 806062
next_region_correct_prediction: 0.778106
statStreamBufferLookups: 144929960
statL1iLookups: 181732584
statCompactorLookups: 231887936
morteza: start

SHEET
mana_table_access_counter : 7124437
mana_table_multiple_access_counter : 5306089
hobp_table_access_counter : 45348458
sab_access_counter : 18981829
srq_access_counter : 17318254

morteza: end
CPU 0 L1D next line prefetcher final stats

DRAM Statistics
 CHANNEL 0
 RQ ROW_BUFFER_HIT:      13848  ROW_BUFFER_MISS:      51374
 DBUS_CONGESTED:      29701
 WQ ROW_BUFFER_HIT:       1431  ROW_BUFFER_MISS:      12020  FULL:          0

 AVG_CONGESTED_CYCLE: 5

CPU 0 Branch Prediction Accuracy: 99.913% MPKI: 0.15656 Average ROB Occupancy at Mispredict: 141.479

Branch types
NOT_BRANCH: 41001727 82.0035%
BRANCH_DIRECT_JUMP: 541941 1.08388%
BRANCH_INDIRECT: 59716 0.119432%
BRANCH_CONDITIONAL: 5916855 11.8337%
BRANCH_DIRECT_CALL: 1005465 2.01093%
BRANCH_INDIRECT_CALL: 234433 0.468866%
BRANCH_RETURN: 1239878 2.47976%
BRANCH_OTHER: 0 0%

