Initialize SIGNATURE TABLE
ST_SET: 1
ST_WAY: 256
ST_TAG_BIT: 16
ST_TAG_MASK: ffff

Initialize PATTERN TABLE
PT_SET: 512
PT_WAY: 4
SIG_DELTA_BIT: 7
C_SIG_BIT: 4
C_DELTA_BIT: 4

Initialize PREFETCH FILTER
FILTER_SET: 1024
MANA initialize 
tds: 2 tdm: 4
size MANA SINGLE: 74 KB
size MANA NULTIPLE: 43 KB
size HOBPT: 5 KB
size SRQ: 0.0644531 KB
size SABs: 0.0402832 KB
size prefetch queue: 0.453125 KB
total: 122.558 KB

*** ChampSim Multicore Out-of-Order Simulator ***

Warmup Instructions: 50000000
Simulation Instructions: 50000000
Number of CPUs: 1
LLC sets: 2048
LLC ways: 16
Off-chip DRAM Size: 4096 MB Channels: 1 Width: 64-bit Data Rate: 3200 MT/s

CPU 0 runs /home/mbaradaran/ChampSim/dpc3_traces/server_004.champsimtrace.xz
CPU 0 L1D next line prefetcher
Heartbeat CPU 0 instructions: 10000002 cycles: 3229341 heartbeat IPC: 3.09661 cumulative IPC: 3.09661 (Simulation time: 0 hr 1 min 20 sec) 
Heartbeat CPU 0 instructions: 20000002 cycles: 6565123 heartbeat IPC: 2.9978 cumulative IPC: 3.0464 (Simulation time: 0 hr 2 min 45 sec) 
Heartbeat CPU 0 instructions: 30000000 cycles: 11682615 heartbeat IPC: 1.95408 cumulative IPC: 2.56792 (Simulation time: 0 hr 4 min 36 sec) 
Heartbeat CPU 0 instructions: 40000003 cycles: 15431052 heartbeat IPC: 2.66778 cumulative IPC: 2.59218 (Simulation time: 0 hr 6 min 10 sec) 
Heartbeat CPU 0 instructions: 50000003 cycles: 18659511 heartbeat IPC: 3.09745 cumulative IPC: 2.6796 (Simulation time: 0 hr 7 min 33 sec) 

Warmup complete CPU 0 instructions: 50000003 cycles: 18659511 (Simulation time: 0 hr 7 min 33 sec) 

Heartbeat CPU 0 instructions: 60000002 cycles: 27518202 heartbeat IPC: 1.12883 cumulative IPC: 1.12883 (Simulation time: 0 hr 8 min 54 sec) 
Heartbeat CPU 0 instructions: 70000000 cycles: 35864687 heartbeat IPC: 1.19811 cumulative IPC: 1.16244 (Simulation time: 0 hr 10 min 21 sec) 
Heartbeat CPU 0 instructions: 80000001 cycles: 56880468 heartbeat IPC: 0.475833 cumulative IPC: 0.78491 (Simulation time: 0 hr 12 min 39 sec) 
Heartbeat CPU 0 instructions: 90000003 cycles: 71914145 heartbeat IPC: 0.665173 cumulative IPC: 0.751108 (Simulation time: 0 hr 14 min 15 sec) 
Heartbeat CPU 0 instructions: 100000003 cycles: 80864963 heartbeat IPC: 1.11722 cumulative IPC: 0.803788 (Simulation time: 0 hr 15 min 28 sec) 
Finished CPU 0 instructions: 50000000 cycles: 62205452 cumulative IPC: 0.803788 (Simulation time: 0 hr 15 min 28 sec) 

ChampSim completed all CPUs

Region of Interest Statistics

CPU 0 cumulative IPC: 0.803788 instructions: 50000000 cycles: 62205452

SHEET
IPC : 0.803788

L1D TOTAL     ACCESS:   21744727  HIT:   17673318  MISS:    4071409
L1D LOAD      ACCESS:    8652842  HIT:    6634890  MISS:    2017952
L1D RFO       ACCESS:    4647382  HIT:    4540412  MISS:     106970
L1D PREFETCH  ACCESS:    8444503  HIT:    6498016  MISS:    1946487
L1D WRITEBACK ACCESS:          0  HIT:          0  MISS:          0
L1D PREFETCH  REQUESTED:    8688990  ISSUED:    8599643  USEFUL:     106774  USELESS:    1839702
L1D AVERAGE MISS LATENCY: 22.9951 cycles
L1D

SHEET
L1D-total_access : 21744727
L1D-total_hit : 17673318
L1D-total_miss : 4071409
L1D-load_access : 8652842
L1D-load_hit : 6634890
L1D-load_miss : 2017952
L1D-rfo_access : 4647382
L1D-rfo_hit : 4540412
L1D-rfo_miss : 106970
L1D-prefetch_access : 8444503
L1D-prefetch_hit : 6498016
L1D-prefetch_miss : 1946487
L1D-writeback_access : 0
L1D-writeback_hit : 0
L1D-writeback_miss : 0
L1D-prefetch_requested : 8688990
L1D-prefetch_issued : 8599643
L1D-prefetch_useful : 106774
L1D-prefetch_useless : 1839702
L1D-Avg_miss_latency : 22.9951
L1D-Morteza_fill_l2_prefetches : 0

L1I TOTAL     ACCESS:   22860830  HIT:   21033613  MISS:    1827217
L1I LOAD      ACCESS:   10678788  HIT:   10318917  MISS:     359871
L1I RFO       ACCESS:          0  HIT:          0  MISS:          0
L1I PREFETCH  ACCESS:   12182042  HIT:   10714696  MISS:    1467346
L1I WRITEBACK ACCESS:          0  HIT:          0  MISS:          0
L1I PREFETCH  REQUESTED:   13668518  ISSUED:   13580241  USEFUL:     945477  USELESS:     521866
L1I AVERAGE MISS LATENCY: 29.8937 cycles
L1I

SHEET
L1I-total_access : 22860830
L1I-total_hit : 21033613
L1I-total_miss : 1827217
L1I-load_access : 10678788
L1I-load_hit : 10318917
L1I-load_miss : 359871
L1I-rfo_access : 0
L1I-rfo_hit : 0
L1I-rfo_miss : 0
L1I-prefetch_access : 12182042
L1I-prefetch_hit : 10714696
L1I-prefetch_miss : 1467346
L1I-writeback_access : 0
L1I-writeback_hit : 0
L1I-writeback_miss : 0
L1I-prefetch_requested : 13668518
L1I-prefetch_issued : 13580241
L1I-prefetch_useful : 945477
L1I-prefetch_useless : 521866
L1I-Avg_miss_latency : 29.8937
L1I-Morteza_fill_l2_prefetches : 0

L2C TOTAL     ACCESS:    7524918  HIT:    6458565  MISS:    1066353
L2C LOAD      ACCESS:    2211909  HIT:    1934234  MISS:     277675
L2C RFO       ACCESS:     105693  HIT:      57524  MISS:      48169
L2C PREFETCH  ACCESS:    4962244  HIT:    4223494  MISS:     738750
L2C WRITEBACK ACCESS:     245072  HIT:     243313  MISS:       1759
L2C PREFETCH  REQUESTED:    6812555  ISSUED:    6809897  USEFUL:      47927  USELESS:     690087
L2C AVERAGE MISS LATENCY: 59.8468 cycles
L2C

SHEET
L2C-total_access : 7524918
L2C-total_hit : 6458565
L2C-total_miss : 1066353
L2C-load_access : 2211909
L2C-load_hit : 1934234
L2C-load_miss : 277675
L2C-rfo_access : 105693
L2C-rfo_hit : 57524
L2C-rfo_miss : 48169
L2C-prefetch_access : 4962244
L2C-prefetch_hit : 4223494
L2C-prefetch_miss : 738750
L2C-writeback_access : 245072
L2C-writeback_hit : 243313
L2C-writeback_miss : 1759
L2C-prefetch_requested : 6812555
L2C-prefetch_issued : 6809897
L2C-prefetch_useful : 47927
L2C-prefetch_useless : 690087
L2C-Avg_miss_latency : 59.8468
L2C-Morteza_fill_l2_prefetches : 1387746

LLC TOTAL     ACCESS:    2485041  HIT:    2241916  MISS:     243125
LLC LOAD      ACCESS:     277131  HIT:     232679  MISS:      44452
LLC RFO       ACCESS:      48167  HIT:      33088  MISS:      15079
LLC PREFETCH  ACCESS:    2018776  HIT:    1835502  MISS:     183274
LLC WRITEBACK ACCESS:     140967  HIT:     140647  MISS:        320
LLC PREFETCH  REQUESTED:          0  ISSUED:          0  USEFUL:      19041  USELESS:     162936
LLC AVERAGE MISS LATENCY: 176.39 cycles
LLC

SHEET
LLC-total_access : 2485041
LLC-total_hit : 2241916
LLC-total_miss : 243125
LLC-load_access : 277131
LLC-load_hit : 232679
LLC-load_miss : 44452
LLC-rfo_access : 48167
LLC-rfo_hit : 33088
LLC-rfo_miss : 15079
LLC-prefetch_access : 2018776
LLC-prefetch_hit : 1835502
LLC-prefetch_miss : 183274
LLC-writeback_access : 140967
LLC-writeback_hit : 140647
LLC-writeback_miss : 320
LLC-prefetch_requested : 0
LLC-prefetch_issued : 0
LLC-prefetch_useful : 19041
LLC-prefetch_useless : 162936
LLC-Avg_miss_latency : 176.39
LLC-Morteza_fill_l2_prefetches : 1230281

Major fault: 0 Minor fault: 7656



Printing Logs
statHeadFound: 2496382
statHeadMissing: 1260273
statStreamBufferHit: 11579206
statPrefetchEntryFound: 9323045
statCompactorMatch: 12908287
statStreamTrackerLookup: 15335861
statRecord: 2427574
statGetPointer: 3756655
statEnqueuePrefetch: 26530304
statPrefetchQueueIsFull: 2442
StreamBufferHitRate: 0.755041
Regions' size: 9575
next_region_correct: 1809499
next_region_wrong: 608492
next_region_correct_prediction: 0.748348
statStreamBufferLookups: 153358610
statL1iLookups: 212242432
statCompactorLookups: 245373776
morteza: start

SHEET
mana_table_access_counter : 5750203
mana_table_multiple_access_counter : 8521528
hobp_table_access_counter : 49126181
sab_access_counter : 20902251
srq_access_counter : 14684974

morteza: end
CPU 0 L1D next line prefetcher final stats

DRAM Statistics
 CHANNEL 0
 RQ ROW_BUFFER_HIT:      50372  ROW_BUFFER_MISS:     192413
 DBUS_CONGESTED:     106363
 WQ ROW_BUFFER_HIT:      11280  ROW_BUFFER_MISS:      44236  FULL:          0

 AVG_CONGESTED_CYCLE: 5

CPU 0 Branch Prediction Accuracy: 98.1603% MPKI: 3.89124 Average ROB Occupancy at Mispredict: 61.6356

Branch types
NOT_BRANCH: 39423760 78.8475%
BRANCH_DIRECT_JUMP: 551642 1.10328%
BRANCH_INDIRECT: 139368 0.278736%
BRANCH_CONDITIONAL: 7920859 15.8417%
BRANCH_DIRECT_CALL: 776072 1.55214%
BRANCH_INDIRECT_CALL: 194644 0.389288%
BRANCH_RETURN: 993311 1.98662%
BRANCH_OTHER: 0 0%

