Initialize SIGNATURE TABLE
ST_SET: 1
ST_WAY: 256
ST_TAG_BIT: 16
ST_TAG_MASK: ffff

Initialize PATTERN TABLE
PT_SET: 512
PT_WAY: 4
SIG_DELTA_BIT: 7
C_SIG_BIT: 4
C_DELTA_BIT: 4

Initialize PREFETCH FILTER
FILTER_SET: 1024
MANA initialize 
tds: 2 tdm: 4
size MANA SINGLE: 74 KB
size MANA NULTIPLE: 43 KB
size HOBPT: 5 KB
size SRQ: 0.0644531 KB
size SABs: 0.0402832 KB
size prefetch queue: 0.453125 KB
total: 122.558 KB

*** ChampSim Multicore Out-of-Order Simulator ***

Warmup Instructions: 50000000
Simulation Instructions: 50000000
Number of CPUs: 1
LLC sets: 2048
LLC ways: 16
Off-chip DRAM Size: 4096 MB Channels: 1 Width: 64-bit Data Rate: 3200 MT/s

CPU 0 runs /home/mbaradaran/ChampSim/dpc3_traces/server_024.champsimtrace.xz
CPU 0 L1D next line prefetcher
Heartbeat CPU 0 instructions: 10000000 cycles: 3503854 heartbeat IPC: 2.854 cumulative IPC: 2.854 (Simulation time: 0 hr 1 min 23 sec) 
Heartbeat CPU 0 instructions: 20000002 cycles: 7000907 heartbeat IPC: 2.85955 cumulative IPC: 2.85677 (Simulation time: 0 hr 2 min 44 sec) 
Heartbeat CPU 0 instructions: 30000000 cycles: 10508844 heartbeat IPC: 2.85068 cumulative IPC: 2.85474 (Simulation time: 0 hr 4 min 14 sec) 
Heartbeat CPU 0 instructions: 40000000 cycles: 14013446 heartbeat IPC: 2.85339 cumulative IPC: 2.8544 (Simulation time: 0 hr 5 min 36 sec) 
Heartbeat CPU 0 instructions: 50000001 cycles: 17507908 heartbeat IPC: 2.86167 cumulative IPC: 2.85585 (Simulation time: 0 hr 6 min 59 sec) 

Warmup complete CPU 0 instructions: 50000001 cycles: 17507908 (Simulation time: 0 hr 6 min 59 sec) 

Heartbeat CPU 0 instructions: 60000002 cycles: 24743470 heartbeat IPC: 1.38206 cumulative IPC: 1.38206 (Simulation time: 0 hr 8 min 16 sec) 
Heartbeat CPU 0 instructions: 70000000 cycles: 32004276 heartbeat IPC: 1.37726 cumulative IPC: 1.37966 (Simulation time: 0 hr 9 min 34 sec) 
*** Reached end of trace for Core: 0 Repeating trace: /home/mbaradaran/ChampSim/dpc3_traces/server_024.champsimtrace.xz
Heartbeat CPU 0 instructions: 80000001 cycles: 39224310 heartbeat IPC: 1.38504 cumulative IPC: 1.38144 (Simulation time: 0 hr 10 min 53 sec) 
Heartbeat CPU 0 instructions: 90000003 cycles: 46505256 heartbeat IPC: 1.37345 cumulative IPC: 1.37944 (Simulation time: 0 hr 12 min 12 sec) 
Heartbeat CPU 0 instructions: 100000002 cycles: 53758798 heartbeat IPC: 1.37864 cumulative IPC: 1.37928 (Simulation time: 0 hr 13 min 32 sec) 
Finished CPU 0 instructions: 50000001 cycles: 36250890 cumulative IPC: 1.37928 (Simulation time: 0 hr 13 min 32 sec) 

ChampSim completed all CPUs

Region of Interest Statistics

CPU 0 cumulative IPC: 1.37928 instructions: 50000001 cycles: 36250890

SHEET
IPC : 1.37928

L1D TOTAL     ACCESS:   20201404  HIT:   18683211  MISS:    1518193
L1D LOAD      ACCESS:    7180899  HIT:    6501136  MISS:     679763
L1D RFO       ACCESS:    6163126  HIT:    5889050  MISS:     274076
L1D PREFETCH  ACCESS:    6857379  HIT:    6293025  MISS:     564354
L1D WRITEBACK ACCESS:          0  HIT:          0  MISS:          0
L1D PREFETCH  REQUESTED:    7235456  ISSUED:    7118499  USEFUL:     136692  USELESS:     427666
L1D AVERAGE MISS LATENCY: 25.2976 cycles
L1D

SHEET
L1D-total_access : 20201404
L1D-total_hit : 18683211
L1D-total_miss : 1518193
L1D-load_access : 7180899
L1D-load_hit : 6501136
L1D-load_miss : 679763
L1D-rfo_access : 6163126
L1D-rfo_hit : 5889050
L1D-rfo_miss : 274076
L1D-prefetch_access : 6857379
L1D-prefetch_hit : 6293025
L1D-prefetch_miss : 564354
L1D-writeback_access : 0
L1D-writeback_hit : 0
L1D-writeback_miss : 0
L1D-prefetch_requested : 7235456
L1D-prefetch_issued : 7118499
L1D-prefetch_useful : 136692
L1D-prefetch_useless : 427666
L1D-Avg_miss_latency : 25.2976
L1D-Morteza_fill_l2_prefetches : 0

L1I TOTAL     ACCESS:   18612129  HIT:   14533571  MISS:    4078558
L1I LOAD      ACCESS:    9147947  HIT:    8302070  MISS:     845877
L1I RFO       ACCESS:          0  HIT:          0  MISS:          0
L1I PREFETCH  ACCESS:    9464182  HIT:    6231501  MISS:    3232681
L1I WRITEBACK ACCESS:          0  HIT:          0  MISS:          0
L1I PREFETCH  REQUESTED:   10873815  ISSUED:   10858823  USEFUL:    2065457  USELESS:    1167224
L1I AVERAGE MISS LATENCY: 15.864 cycles
L1I

SHEET
L1I-total_access : 18612129
L1I-total_hit : 14533571
L1I-total_miss : 4078558
L1I-load_access : 9147947
L1I-load_hit : 8302070
L1I-load_miss : 845877
L1I-rfo_access : 0
L1I-rfo_hit : 0
L1I-rfo_miss : 0
L1I-prefetch_access : 9464182
L1I-prefetch_hit : 6231501
L1I-prefetch_miss : 3232681
L1I-writeback_access : 0
L1I-writeback_hit : 0
L1I-writeback_miss : 0
L1I-prefetch_requested : 10873815
L1I-prefetch_issued : 10858823
L1I-prefetch_useful : 2065457
L1I-prefetch_useless : 1167224
L1I-Avg_miss_latency : 15.864
L1I-Morteza_fill_l2_prefetches : 0

L2C TOTAL     ACCESS:    7560553  HIT:    6845936  MISS:     714617
L2C LOAD      ACCESS:    1092578  HIT:     926461  MISS:     166117
L2C RFO       ACCESS:     272305  HIT:     186034  MISS:      86271
L2C PREFETCH  ACCESS:    5675486  HIT:    5218709  MISS:     456777
L2C WRITEBACK ACCESS:     520184  HIT:     514732  MISS:       5452
L2C PREFETCH  REQUESTED:    6353861  ISSUED:    6346586  USEFUL:      34838  USELESS:     420866
L2C AVERAGE MISS LATENCY: 43.8366 cycles
L2C

SHEET
L2C-total_access : 7560553
L2C-total_hit : 6845936
L2C-total_miss : 714617
L2C-load_access : 1092578
L2C-load_hit : 926461
L2C-load_miss : 166117
L2C-rfo_access : 272305
L2C-rfo_hit : 186034
L2C-rfo_miss : 86271
L2C-prefetch_access : 5675486
L2C-prefetch_hit : 5218709
L2C-prefetch_miss : 456777
L2C-writeback_access : 520184
L2C-writeback_hit : 514732
L2C-writeback_miss : 5452
L2C-prefetch_requested : 6353861
L2C-prefetch_issued : 6346586
L2C-prefetch_useful : 34838
L2C-prefetch_useless : 420866
L2C-Avg_miss_latency : 43.8366
L2C-Morteza_fill_l2_prefetches : 1486772

LLC TOTAL     ACCESS:    2471449  HIT:    2418722  MISS:      52727
LLC LOAD      ACCESS:     165945  HIT:     160157  MISS:       5788
LLC RFO       ACCESS:      86268  HIT:      64206  MISS:      22062
LLC PREFETCH  ACCESS:    2077791  HIT:    2053172  MISS:      24619
LLC WRITEBACK ACCESS:     141445  HIT:     141187  MISS:        258
LLC PREFETCH  REQUESTED:          0  ISSUED:          0  USEFUL:       2207  USELESS:      21886
LLC AVERAGE MISS LATENCY: 203.983 cycles
LLC

SHEET
LLC-total_access : 2471449
LLC-total_hit : 2418722
LLC-total_miss : 52727
LLC-load_access : 165945
LLC-load_hit : 160157
LLC-load_miss : 5788
LLC-rfo_access : 86268
LLC-rfo_hit : 64206
LLC-rfo_miss : 22062
LLC-prefetch_access : 2077791
LLC-prefetch_hit : 2053172
LLC-prefetch_miss : 24619
LLC-writeback_access : 141445
LLC-writeback_hit : 141187
LLC-writeback_miss : 258
LLC-prefetch_requested : 0
LLC-prefetch_issued : 0
LLC-prefetch_useful : 2207
LLC-prefetch_useless : 21886
LLC-Avg_miss_latency : 203.983
LLC-Morteza_fill_l2_prefetches : 1624184

Major fault: 0 Minor fault: 2426



Printing Logs
statHeadFound: 1849396
statHeadMissing: 2421432
statStreamBufferHit: 9814313
statPrefetchEntryFound: 7936972
statCompactorMatch: 11085698
statStreamTrackerLookup: 14085141
statRecord: 2999443
statGetPointer: 4270828
statEnqueuePrefetch: 21629493
statPrefetchQueueIsFull: 2560
StreamBufferHitRate: 0.696785
Regions' size: 2551
next_region_correct: 1980638
next_region_wrong: 1016246
next_region_correct_prediction: 0.660899
statStreamBufferLookups: 140851410
statL1iLookups: 173035944
statCompactorLookups: 225362256
morteza: start

SHEET
mana_table_access_counter : 6344217
mana_table_multiple_access_counter : 6448022
hobp_table_access_counter : 54110388
sab_access_counter : 17751285
srq_access_counter : 15991190

morteza: end
CPU 0 L1D next line prefetcher final stats

DRAM Statistics
 CHANNEL 0
 RQ ROW_BUFFER_HIT:      17525  ROW_BUFFER_MISS:      34926
 DBUS_CONGESTED:      38742
 WQ ROW_BUFFER_HIT:       2823  ROW_BUFFER_MISS:      23124  FULL:          0

 AVG_CONGESTED_CYCLE: 6

CPU 0 Branch Prediction Accuracy: 99.7477% MPKI: 0.46156 Average ROB Occupancy at Mispredict: 140.736

Branch types
NOT_BRANCH: 40853595 81.7072%
BRANCH_DIRECT_JUMP: 566814 1.13363%
BRANCH_INDIRECT: 197171 0.394342%
BRANCH_CONDITIONAL: 6308406 12.6168%
BRANCH_DIRECT_CALL: 876399 1.7528%
BRANCH_INDIRECT_CALL: 160491 0.320982%
BRANCH_RETURN: 1036885 2.07377%
BRANCH_OTHER: 0 0%

