Initialize SIGNATURE TABLE
ST_SET: 1
ST_WAY: 256
ST_TAG_BIT: 16
ST_TAG_MASK: ffff

Initialize PATTERN TABLE
PT_SET: 512
PT_WAY: 4
SIG_DELTA_BIT: 7
C_SIG_BIT: 4
C_DELTA_BIT: 4

Initialize PREFETCH FILTER
FILTER_SET: 1024
MANA initialize 
tds: 2 tdm: 4
size MANA SINGLE: 74 KB
size MANA NULTIPLE: 43 KB
size HOBPT: 5 KB
size SRQ: 0.0644531 KB
size SABs: 0.0402832 KB
size prefetch queue: 0.453125 KB
total: 122.558 KB

*** ChampSim Multicore Out-of-Order Simulator ***

Warmup Instructions: 50000000
Simulation Instructions: 50000000
Number of CPUs: 1
LLC sets: 2048
LLC ways: 16
Off-chip DRAM Size: 4096 MB Channels: 1 Width: 64-bit Data Rate: 3200 MT/s

CPU 0 runs /home/mbaradaran/ChampSim/dpc3_traces/server_015.champsimtrace.xz
CPU 0 L1D next line prefetcher
Heartbeat CPU 0 instructions: 10000002 cycles: 3519399 heartbeat IPC: 2.84139 cumulative IPC: 2.84139 (Simulation time: 0 hr 1 min 26 sec) 
Heartbeat CPU 0 instructions: 20000001 cycles: 7107201 heartbeat IPC: 2.78722 cumulative IPC: 2.81405 (Simulation time: 0 hr 2 min 56 sec) 
Heartbeat CPU 0 instructions: 30000001 cycles: 10646204 heartbeat IPC: 2.82565 cumulative IPC: 2.81791 (Simulation time: 0 hr 4 min 17 sec) 
Heartbeat CPU 0 instructions: 40000002 cycles: 14194245 heartbeat IPC: 2.81846 cumulative IPC: 2.81804 (Simulation time: 0 hr 5 min 46 sec) 
Heartbeat CPU 0 instructions: 50000002 cycles: 17742505 heartbeat IPC: 2.81828 cumulative IPC: 2.81809 (Simulation time: 0 hr 7 min 9 sec) 

Warmup complete CPU 0 instructions: 50000002 cycles: 17742505 (Simulation time: 0 hr 7 min 9 sec) 

Heartbeat CPU 0 instructions: 60000002 cycles: 24284673 heartbeat IPC: 1.52855 cumulative IPC: 1.52855 (Simulation time: 0 hr 8 min 22 sec) 
Heartbeat CPU 0 instructions: 70000003 cycles: 30828306 heartbeat IPC: 1.5282 cumulative IPC: 1.52837 (Simulation time: 0 hr 9 min 39 sec) 
Heartbeat CPU 0 instructions: 80000000 cycles: 37361042 heartbeat IPC: 1.53075 cumulative IPC: 1.52917 (Simulation time: 0 hr 10 min 57 sec) 
Heartbeat CPU 0 instructions: 90000000 cycles: 43905609 heartbeat IPC: 1.52798 cumulative IPC: 1.52887 (Simulation time: 0 hr 12 min 15 sec) 
Heartbeat CPU 0 instructions: 100000000 cycles: 50457026 heartbeat IPC: 1.52639 cumulative IPC: 1.52837 (Simulation time: 0 hr 13 min 35 sec) 
Finished CPU 0 instructions: 50000002 cycles: 32714522 cumulative IPC: 1.52837 (Simulation time: 0 hr 13 min 35 sec) 

ChampSim completed all CPUs

Region of Interest Statistics

CPU 0 cumulative IPC: 1.52837 instructions: 50000002 cycles: 32714522

SHEET
IPC : 1.52837

L1D TOTAL     ACCESS:   22173725  HIT:   22156203  MISS:      17522
L1D LOAD      ACCESS:    6857017  HIT:    6856483  MISS:        534
L1D RFO       ACCESS:    8566464  HIT:    8566368  MISS:         96
L1D PREFETCH  ACCESS:    6750244  HIT:    6733352  MISS:      16892
L1D WRITEBACK ACCESS:          0  HIT:          0  MISS:          0
L1D PREFETCH  REQUESTED:    6857077  ISSUED:    6754745  USEFUL:         86  USELESS:      16804
L1D AVERAGE MISS LATENCY: 16.2259 cycles
L1D

SHEET
L1D-total_access : 22173725
L1D-total_hit : 22156203
L1D-total_miss : 17522
L1D-load_access : 6857017
L1D-load_hit : 6856483
L1D-load_miss : 534
L1D-rfo_access : 8566464
L1D-rfo_hit : 8566368
L1D-rfo_miss : 96
L1D-prefetch_access : 6750244
L1D-prefetch_hit : 6733352
L1D-prefetch_miss : 16892
L1D-writeback_access : 0
L1D-writeback_hit : 0
L1D-writeback_miss : 0
L1D-prefetch_requested : 6857077
L1D-prefetch_issued : 6754745
L1D-prefetch_useful : 86
L1D-prefetch_useless : 16804
L1D-Avg_miss_latency : 16.2259
L1D-Morteza_fill_l2_prefetches : 0

L1I TOTAL     ACCESS:   20350803  HIT:   16111007  MISS:    4239796
L1I LOAD      ACCESS:    9535028  HIT:    8794162  MISS:     740866
L1I RFO       ACCESS:          0  HIT:          0  MISS:          0
L1I PREFETCH  ACCESS:   10815775  HIT:    7316845  MISS:    3498930
L1I WRITEBACK ACCESS:          0  HIT:          0  MISS:          0
L1I PREFETCH  REQUESTED:   12137635  ISSUED:   12137628  USEFUL:    3143967  USELESS:     354980
L1I AVERAGE MISS LATENCY: 13.1008 cycles
L1I

SHEET
L1I-total_access : 20350803
L1I-total_hit : 16111007
L1I-total_miss : 4239796
L1I-load_access : 9535028
L1I-load_hit : 8794162
L1I-load_miss : 740866
L1I-rfo_access : 0
L1I-rfo_hit : 0
L1I-rfo_miss : 0
L1I-prefetch_access : 10815775
L1I-prefetch_hit : 7316845
L1I-prefetch_miss : 3498930
L1I-writeback_access : 0
L1I-writeback_hit : 0
L1I-writeback_miss : 0
L1I-prefetch_requested : 12137635
L1I-prefetch_issued : 12137628
L1I-prefetch_useful : 3143967
L1I-prefetch_useless : 354980
L1I-Avg_miss_latency : 13.1008
L1I-Morteza_fill_l2_prefetches : 0

L2C TOTAL     ACCESS:    5556005  HIT:    5555729  MISS:        276
L2C LOAD      ACCESS:     308704  HIT:     308630  MISS:         74
L2C RFO       ACCESS:         94  HIT:         92  MISS:          2
L2C PREFETCH  ACCESS:    5246856  HIT:    5246656  MISS:        200
L2C WRITEBACK ACCESS:        351  HIT:        351  MISS:          0
L2C PREFETCH  REQUESTED:    3894693  ISSUED:    3894666  USEFUL:         79  USELESS:        119
L2C AVERAGE MISS LATENCY: 103.428 cycles
L2C

SHEET
L2C-total_access : 5556005
L2C-total_hit : 5555729
L2C-total_miss : 276
L2C-load_access : 308704
L2C-load_hit : 308630
L2C-load_miss : 74
L2C-rfo_access : 94
L2C-rfo_hit : 92
L2C-rfo_miss : 2
L2C-prefetch_access : 5246856
L2C-prefetch_hit : 5246656
L2C-prefetch_miss : 200
L2C-writeback_access : 351
L2C-writeback_hit : 351
L2C-writeback_miss : 0
L2C-prefetch_requested : 3894693
L2C-prefetch_issued : 3894666
L2C-prefetch_useful : 79
L2C-prefetch_useless : 119
L2C-Avg_miss_latency : 103.428
L2C-Morteza_fill_l2_prefetches : 1333540

LLC TOTAL     ACCESS:     675685  HIT:     675155  MISS:        530
LLC LOAD      ACCESS:         74  HIT:         60  MISS:         14
LLC RFO       ACCESS:          2  HIT:          0  MISS:          2
LLC PREFETCH  ACCESS:     675549  HIT:     675037  MISS:        512
LLC WRITEBACK ACCESS:         60  HIT:         58  MISS:          2
LLC PREFETCH  REQUESTED:          0  ISSUED:          0  USEFUL:         12  USELESS:        151
LLC AVERAGE MISS LATENCY: 272.968 cycles
LLC

SHEET
LLC-total_access : 675685
LLC-total_hit : 675155
LLC-total_miss : 530
LLC-load_access : 74
LLC-load_hit : 60
LLC-load_miss : 14
LLC-rfo_access : 2
LLC-rfo_hit : 0
LLC-rfo_miss : 2
LLC-prefetch_access : 675549
LLC-prefetch_hit : 675037
LLC-prefetch_miss : 512
LLC-writeback_access : 60
LLC-writeback_hit : 58
LLC-writeback_miss : 2
LLC-prefetch_requested : 0
LLC-prefetch_issued : 0
LLC-prefetch_useful : 12
LLC-prefetch_useless : 151
LLC-Avg_miss_latency : 272.968
LLC-Morteza_fill_l2_prefetches : 674961

Major fault: 0 Minor fault: 1951



Printing Logs
statHeadFound: 1846864
statHeadMissing: 1406142
statStreamBufferHit: 11344793
statPrefetchEntryFound: 8635598
statCompactorMatch: 10964499
statStreamTrackerLookup: 14597799
statRecord: 3633300
statGetPointer: 3253006
statEnqueuePrefetch: 24294088
statPrefetchQueueIsFull: 8
StreamBufferHitRate: 0.777158
Regions' size: 2799
next_region_correct: 2540282
next_region_wrong: 1090211
next_region_correct_prediction: 0.699707
statStreamBufferLookups: 145977990
statL1iLookups: 194352704
statCompactorLookups: 233564784
morteza: start

SHEET
mana_table_access_counter : 6417590
mana_table_multiple_access_counter : 7701262
hobp_table_access_counter : 49197986
sab_access_counter : 19980391
srq_access_counter : 17699618

morteza: end
CPU 0 L1D next line prefetcher final stats

DRAM Statistics
 CHANNEL 0
 RQ ROW_BUFFER_HIT:         85  ROW_BUFFER_MISS:        442
 DBUS_CONGESTED:        305
 WQ ROW_BUFFER_HIT:         48  ROW_BUFFER_MISS:        277  FULL:          0

 AVG_CONGESTED_CYCLE: 6

CPU 0 Branch Prediction Accuracy: 99.9085% MPKI: 0.15428 Average ROB Occupancy at Mispredict: 221.599

Branch types
NOT_BRANCH: 41572961 83.1459%
BRANCH_DIRECT_JUMP: 436253 0.872506%
BRANCH_INDIRECT: 0 0%
BRANCH_CONDITIONAL: 5395870 10.7917%
BRANCH_DIRECT_CALL: 1173385 2.34677%
BRANCH_INDIRECT_CALL: 123910 0.24782%
BRANCH_RETURN: 1297306 2.59461%
BRANCH_OTHER: 0 0%

