Initialize SIGNATURE TABLE
ST_SET: 1
ST_WAY: 256
ST_TAG_BIT: 16
ST_TAG_MASK: ffff

Initialize PATTERN TABLE
PT_SET: 512
PT_WAY: 4
SIG_DELTA_BIT: 7
C_SIG_BIT: 4
C_DELTA_BIT: 4

Initialize PREFETCH FILTER
FILTER_SET: 1024
MANA initialize 
tds: 2 tdm: 4
size MANA SINGLE: 74 KB
size MANA NULTIPLE: 43 KB
size HOBPT: 5 KB
size SRQ: 0.0644531 KB
size SABs: 0.0402832 KB
size prefetch queue: 0.453125 KB
total: 122.558 KB

*** ChampSim Multicore Out-of-Order Simulator ***

Warmup Instructions: 50000000
Simulation Instructions: 50000000
Number of CPUs: 1
LLC sets: 2048
LLC ways: 16
Off-chip DRAM Size: 4096 MB Channels: 1 Width: 64-bit Data Rate: 3200 MT/s

CPU 0 runs /home/mbaradaran/ChampSim/dpc3_traces/spec_gcc_001.champsimtrace.xz
CPU 0 L1D next line prefetcher
Heartbeat CPU 0 instructions: 10000003 cycles: 3220162 heartbeat IPC: 3.10543 cumulative IPC: 3.10543 (Simulation time: 0 hr 1 min 27 sec) 
Heartbeat CPU 0 instructions: 20000002 cycles: 6466007 heartbeat IPC: 3.08086 cumulative IPC: 3.0931 (Simulation time: 0 hr 2 min 49 sec) 
Heartbeat CPU 0 instructions: 30000000 cycles: 9667717 heartbeat IPC: 3.12333 cumulative IPC: 3.10311 (Simulation time: 0 hr 4 min 9 sec) 
Heartbeat CPU 0 instructions: 40000001 cycles: 12909616 heartbeat IPC: 3.08461 cumulative IPC: 3.09847 (Simulation time: 0 hr 5 min 31 sec) 
Heartbeat CPU 0 instructions: 50000001 cycles: 16151001 heartbeat IPC: 3.0851 cumulative IPC: 3.09578 (Simulation time: 0 hr 6 min 50 sec) 

Warmup complete CPU 0 instructions: 50000001 cycles: 16151001 (Simulation time: 0 hr 6 min 50 sec) 

Heartbeat CPU 0 instructions: 60000000 cycles: 24080478 heartbeat IPC: 1.26112 cumulative IPC: 1.26112 (Simulation time: 0 hr 7 min 55 sec) 
Heartbeat CPU 0 instructions: 70000002 cycles: 32090557 heartbeat IPC: 1.24843 cumulative IPC: 1.25474 (Simulation time: 0 hr 9 min 0 sec) 
Heartbeat CPU 0 instructions: 80000000 cycles: 39764950 heartbeat IPC: 1.30303 cumulative IPC: 1.27044 (Simulation time: 0 hr 10 min 5 sec) 
Heartbeat CPU 0 instructions: 90000003 cycles: 47724870 heartbeat IPC: 1.25629 cumulative IPC: 1.26687 (Simulation time: 0 hr 11 min 11 sec) 
Heartbeat CPU 0 instructions: 100000000 cycles: 55987367 heartbeat IPC: 1.21029 cumulative IPC: 1.25513 (Simulation time: 0 hr 12 min 17 sec) 
Finished CPU 0 instructions: 50000000 cycles: 39836370 cumulative IPC: 1.25513 (Simulation time: 0 hr 12 min 17 sec) 

ChampSim completed all CPUs

Region of Interest Statistics

CPU 0 cumulative IPC: 1.25513 instructions: 50000000 cycles: 39836370

SHEET
IPC : 1.25513

L1D TOTAL     ACCESS:   19437823  HIT:   18332642  MISS:    1105181
L1D LOAD      ACCESS:    7288969  HIT:    6809734  MISS:     479235
L1D RFO       ACCESS:    5120345  HIT:    5040712  MISS:      79633
L1D PREFETCH  ACCESS:    7028509  HIT:    6482196  MISS:     546313
L1D WRITEBACK ACCESS:          0  HIT:          0  MISS:          0
L1D PREFETCH  REQUESTED:    7332975  ISSUED:    7233202  USEFUL:     276082  USELESS:     270243
L1D AVERAGE MISS LATENCY: 25.768 cycles
L1D

SHEET
L1D-total_access : 19437823
L1D-total_hit : 18332642
L1D-total_miss : 1105181
L1D-load_access : 7288969
L1D-load_hit : 6809734
L1D-load_miss : 479235
L1D-rfo_access : 5120345
L1D-rfo_hit : 5040712
L1D-rfo_miss : 79633
L1D-prefetch_access : 7028509
L1D-prefetch_hit : 6482196
L1D-prefetch_miss : 546313
L1D-writeback_access : 0
L1D-writeback_hit : 0
L1D-writeback_miss : 0
L1D-prefetch_requested : 7332975
L1D-prefetch_issued : 7233202
L1D-prefetch_useful : 276082
L1D-prefetch_useless : 270243
L1D-Avg_miss_latency : 25.768
L1D-Morteza_fill_l2_prefetches : 0

L1I TOTAL     ACCESS:   23682184  HIT:   22408638  MISS:    1273546
L1I LOAD      ACCESS:    9318213  HIT:    9061014  MISS:     257199
L1I RFO       ACCESS:          0  HIT:          0  MISS:          0
L1I PREFETCH  ACCESS:   14363971  HIT:   13347624  MISS:    1016347
L1I WRITEBACK ACCESS:          0  HIT:          0  MISS:          0
L1I PREFETCH  REQUESTED:   16582840  ISSUED:   16539947  USEFUL:     630901  USELESS:     385440
L1I AVERAGE MISS LATENCY: 16.9771 cycles
L1I

SHEET
L1I-total_access : 23682184
L1I-total_hit : 22408638
L1I-total_miss : 1273546
L1I-load_access : 9318213
L1I-load_hit : 9061014
L1I-load_miss : 257199
L1I-rfo_access : 0
L1I-rfo_hit : 0
L1I-rfo_miss : 0
L1I-prefetch_access : 14363971
L1I-prefetch_hit : 13347624
L1I-prefetch_miss : 1016347
L1I-writeback_access : 0
L1I-writeback_hit : 0
L1I-writeback_miss : 0
L1I-prefetch_requested : 16582840
L1I-prefetch_issued : 16539947
L1I-prefetch_useful : 630901
L1I-prefetch_useless : 385440
L1I-Avg_miss_latency : 16.9771
L1I-Morteza_fill_l2_prefetches : 0

L2C TOTAL     ACCESS:    3783963  HIT:    3523692  MISS:     260271
L2C LOAD      ACCESS:     633170  HIT:     550788  MISS:      82382
L2C RFO       ACCESS:      75020  HIT:      36064  MISS:      38956
L2C PREFETCH  ACCESS:    2822012  HIT:    2683514  MISS:     138498
L2C WRITEBACK ACCESS:     253761  HIT:     253326  MISS:        435
L2C PREFETCH  REQUESTED:    2677062  ISSUED:    2676816  USEFUL:      34052  USELESS:     103714
L2C AVERAGE MISS LATENCY: 65.7727 cycles
L2C

SHEET
L2C-total_access : 3783963
L2C-total_hit : 3523692
L2C-total_miss : 260271
L2C-load_access : 633170
L2C-load_hit : 550788
L2C-load_miss : 82382
L2C-rfo_access : 75020
L2C-rfo_hit : 36064
L2C-rfo_miss : 38956
L2C-prefetch_access : 2822012
L2C-prefetch_hit : 2683514
L2C-prefetch_miss : 138498
L2C-writeback_access : 253761
L2C-writeback_hit : 253326
L2C-writeback_miss : 435
L2C-prefetch_requested : 2677062
L2C-prefetch_issued : 2676816
L2C-prefetch_useful : 34052
L2C-prefetch_useless : 103714
L2C-Avg_miss_latency : 65.7727
L2C-Morteza_fill_l2_prefetches : 1162655

LLC TOTAL     ACCESS:     809913  HIT:     730379  MISS:      79534
LLC LOAD      ACCESS:      82179  HIT:      72287  MISS:       9892
LLC RFO       ACCESS:      38956  HIT:      17875  MISS:      21081
LLC PREFETCH  ACCESS:     596109  HIT:     548663  MISS:      47446
LLC WRITEBACK ACCESS:      92669  HIT:      91554  MISS:       1115
LLC PREFETCH  REQUESTED:          0  ISSUED:          0  USEFUL:      12558  USELESS:      35171
LLC AVERAGE MISS LATENCY: 187.577 cycles
LLC

SHEET
LLC-total_access : 809913
LLC-total_hit : 730379
LLC-total_miss : 79534
LLC-load_access : 82179
LLC-load_hit : 72287
LLC-load_miss : 9892
LLC-rfo_access : 38956
LLC-rfo_hit : 17875
LLC-rfo_miss : 21081
LLC-prefetch_access : 596109
LLC-prefetch_hit : 548663
LLC-prefetch_miss : 47446
LLC-writeback_access : 92669
LLC-writeback_hit : 91554
LLC-writeback_miss : 1115
LLC-prefetch_requested : 0
LLC-prefetch_issued : 0
LLC-prefetch_useful : 12558
LLC-prefetch_useless : 35171
LLC-Avg_miss_latency : 187.577
LLC-Morteza_fill_l2_prefetches : 431994

Major fault: 0 Minor fault: 6989



Printing Logs
statHeadFound: 2961269
statHeadMissing: 1630543
statStreamBufferHit: 10614729
statPrefetchEntryFound: 10512446
statCompactorMatch: 13107036
statStreamTrackerLookup: 15206541
statRecord: 2099505
statGetPointer: 4591812
statEnqueuePrefetch: 31682863
statPrefetchQueueIsFull: 32494
StreamBufferHitRate: 0.698037
Regions' size: 13295
next_region_correct: 1322887
next_region_wrong: 763315
next_region_correct_prediction: 0.634113
statStreamBufferLookups: 152065410
statL1iLookups: 253462904
statCompactorLookups: 243304656
morteza: start

SHEET
mana_table_access_counter : 4327472
mana_table_multiple_access_counter : 11336794
hobp_table_access_counter : 55775031
sab_access_counter : 21127175
srq_access_counter : 14703578

morteza: end
CPU 0 L1D next line prefetcher final stats

DRAM Statistics
 CHANNEL 0
 RQ ROW_BUFFER_HIT:      20011  ROW_BUFFER_MISS:      58400
 DBUS_CONGESTED:      41163
 WQ ROW_BUFFER_HIT:       4508  ROW_BUFFER_MISS:      24512  FULL:          0

 AVG_CONGESTED_CYCLE: 6

CPU 0 Branch Prediction Accuracy: 95.8872% MPKI: 9.67286 Average ROB Occupancy at Mispredict: 63.6238

Branch types
NOT_BRANCH: 38240102 76.4802%
BRANCH_DIRECT_JUMP: 653296 1.30659%
BRANCH_INDIRECT: 37098 0.074196%
BRANCH_CONDITIONAL: 8897819 17.7956%
BRANCH_DIRECT_CALL: 992620 1.98524%
BRANCH_INDIRECT_CALL: 93046 0.186092%
BRANCH_RETURN: 1085674 2.17135%
BRANCH_OTHER: 0 0%

