Initialize SIGNATURE TABLE
ST_SET: 1
ST_WAY: 256
ST_TAG_BIT: 16
ST_TAG_MASK: ffff

Initialize PATTERN TABLE
PT_SET: 512
PT_WAY: 4
SIG_DELTA_BIT: 7
C_SIG_BIT: 4
C_DELTA_BIT: 4

Initialize PREFETCH FILTER
FILTER_SET: 1024
MANA initialize 
tds: 2 tdm: 4
size MANA SINGLE: 74 KB
size MANA NULTIPLE: 43 KB
size HOBPT: 5 KB
size SRQ: 0.0644531 KB
size SABs: 0.0402832 KB
size prefetch queue: 0.453125 KB
total: 122.558 KB

*** ChampSim Multicore Out-of-Order Simulator ***

Warmup Instructions: 50000000
Simulation Instructions: 50000000
Number of CPUs: 1
LLC sets: 2048
LLC ways: 16
Off-chip DRAM Size: 4096 MB Channels: 1 Width: 64-bit Data Rate: 3200 MT/s

CPU 0 runs /home/mbaradaran/ChampSim/dpc3_traces/spec_gcc_002.champsimtrace.xz
CPU 0 L1D next line prefetcher
Heartbeat CPU 0 instructions: 10000002 cycles: 3549465 heartbeat IPC: 2.81733 cumulative IPC: 2.81733 (Simulation time: 0 hr 1 min 10 sec) 
Heartbeat CPU 0 instructions: 20000000 cycles: 7117275 heartbeat IPC: 2.80284 cumulative IPC: 2.81006 (Simulation time: 0 hr 2 min 26 sec) 
Heartbeat CPU 0 instructions: 30000000 cycles: 10733896 heartbeat IPC: 2.76501 cumulative IPC: 2.79488 (Simulation time: 0 hr 3 min 51 sec) 
Heartbeat CPU 0 instructions: 40000000 cycles: 14289020 heartbeat IPC: 2.81284 cumulative IPC: 2.79935 (Simulation time: 0 hr 5 min 5 sec) 
Heartbeat CPU 0 instructions: 50000002 cycles: 17782398 heartbeat IPC: 2.86256 cumulative IPC: 2.81177 (Simulation time: 0 hr 6 min 13 sec) 

Warmup complete CPU 0 instructions: 50000002 cycles: 17782398 (Simulation time: 0 hr 6 min 13 sec) 

Heartbeat CPU 0 instructions: 60000001 cycles: 54835667 heartbeat IPC: 0.269882 cumulative IPC: 0.269882 (Simulation time: 0 hr 8 min 35 sec) 
Heartbeat CPU 0 instructions: 70000001 cycles: 86731938 heartbeat IPC: 0.313516 cumulative IPC: 0.290067 (Simulation time: 0 hr 10 min 43 sec) 
Heartbeat CPU 0 instructions: 80000002 cycles: 135246918 heartbeat IPC: 0.206122 cumulative IPC: 0.255396 (Simulation time: 0 hr 13 min 30 sec) 
Heartbeat CPU 0 instructions: 90000001 cycles: 179211013 heartbeat IPC: 0.227458 cumulative IPC: 0.247788 (Simulation time: 0 hr 16 min 10 sec) 
Heartbeat CPU 0 instructions: 100000000 cycles: 208346370 heartbeat IPC: 0.343226 cumulative IPC: 0.262379 (Simulation time: 0 hr 18 min 12 sec) 
Finished CPU 0 instructions: 50000002 cycles: 190563980 cumulative IPC: 0.262379 (Simulation time: 0 hr 18 min 12 sec) 

ChampSim completed all CPUs

Region of Interest Statistics

CPU 0 cumulative IPC: 0.262379 instructions: 50000002 cycles: 190563980

SHEET
IPC : 0.262379

L1D TOTAL     ACCESS:   18427638  HIT:   13193855  MISS:    5233783
L1D LOAD      ACCESS:    6429413  HIT:    5389470  MISS:    1039943
L1D RFO       ACCESS:    7057266  HIT:    3456497  MISS:    3600769
L1D PREFETCH  ACCESS:    4940959  HIT:    4347888  MISS:     593071
L1D WRITEBACK ACCESS:          0  HIT:          0  MISS:          0
L1D PREFETCH  REQUESTED:    6449964  ISSUED:    6382199  USEFUL:     433252  USELESS:     160035
L1D AVERAGE MISS LATENCY: 328.033 cycles
L1D

SHEET
L1D-total_access : 18427638
L1D-total_hit : 13193855
L1D-total_miss : 5233783
L1D-load_access : 6429413
L1D-load_hit : 5389470
L1D-load_miss : 1039943
L1D-rfo_access : 7057266
L1D-rfo_hit : 3456497
L1D-rfo_miss : 3600769
L1D-prefetch_access : 4940959
L1D-prefetch_hit : 4347888
L1D-prefetch_miss : 593071
L1D-writeback_access : 0
L1D-writeback_hit : 0
L1D-writeback_miss : 0
L1D-prefetch_requested : 6449964
L1D-prefetch_issued : 6382199
L1D-prefetch_useful : 433252
L1D-prefetch_useless : 160035
L1D-Avg_miss_latency : 328.033
L1D-Morteza_fill_l2_prefetches : 0

L1I TOTAL     ACCESS:   19828333  HIT:   18414477  MISS:    1413856
L1I LOAD      ACCESS:   12067547  HIT:   11745397  MISS:     322150
L1I RFO       ACCESS:          0  HIT:          0  MISS:          0
L1I PREFETCH  ACCESS:    7760786  HIT:    6669080  MISS:    1091706
L1I WRITEBACK ACCESS:          0  HIT:          0  MISS:          0
L1I PREFETCH  REQUESTED:    9721518  ISSUED:    9525998  USEFUL:     638857  USELESS:     452811
L1I AVERAGE MISS LATENCY: 41.7464 cycles
L1I

SHEET
L1I-total_access : 19828333
L1I-total_hit : 18414477
L1I-total_miss : 1413856
L1I-load_access : 12067547
L1I-load_hit : 11745397
L1I-load_miss : 322150
L1I-rfo_access : 0
L1I-rfo_hit : 0
L1I-rfo_miss : 0
L1I-prefetch_access : 7760786
L1I-prefetch_hit : 6669080
L1I-prefetch_miss : 1091706
L1I-writeback_access : 0
L1I-writeback_hit : 0
L1I-writeback_miss : 0
L1I-prefetch_requested : 9721518
L1I-prefetch_issued : 9525998
L1I-prefetch_useful : 638857
L1I-prefetch_useless : 452811
L1I-Avg_miss_latency : 41.7464
L1I-Morteza_fill_l2_prefetches : 0

L2C TOTAL     ACCESS:   10913565  HIT:    5601559  MISS:    5312006
L2C LOAD      ACCESS:     478239  HIT:     269721  MISS:     208518
L2C RFO       ACCESS:    3599142  HIT:      12082  MISS:    3587060
L2C PREFETCH  ACCESS:    3110656  HIT:    1594358  MISS:    1516298
L2C WRITEBACK ACCESS:    3725528  HIT:    3725398  MISS:        130
L2C PREFETCH  REQUESTED:    3748261  ISSUED:    3747721  USEFUL:      65365  USELESS:    1451019
L2C AVERAGE MISS LATENCY: 335.418 cycles
L2C

SHEET
L2C-total_access : 10913565
L2C-total_hit : 5601559
L2C-total_miss : 5312006
L2C-load_access : 478239
L2C-load_hit : 269721
L2C-load_miss : 208518
L2C-rfo_access : 3599142
L2C-rfo_hit : 12082
L2C-rfo_miss : 3587060
L2C-prefetch_access : 3110656
L2C-prefetch_hit : 1594358
L2C-prefetch_miss : 1516298
L2C-writeback_access : 3725528
L2C-writeback_hit : 3725398
L2C-writeback_miss : 130
L2C-prefetch_requested : 3748261
L2C-prefetch_issued : 3747721
L2C-prefetch_useful : 65365
L2C-prefetch_useless : 1451019
L2C-Avg_miss_latency : 335.418
L2C-Morteza_fill_l2_prefetches : 443197

LLC TOTAL     ACCESS:   10155394  HIT:    6473677  MISS:    3681717
LLC LOAD      ACCESS:     208312  HIT:     132811  MISS:      75501
LLC RFO       ACCESS:    3587059  HIT:     687928  MISS:    2899131
LLC PREFETCH  ACCESS:    2691350  HIT:    1984265  MISS:     707085
LLC WRITEBACK ACCESS:    3668673  HIT:    3668673  MISS:          0
LLC PREFETCH  REQUESTED:          0  ISSUED:          0  USEFUL:     163083  USELESS:     540726
LLC AVERAGE MISS LATENCY: 462.395 cycles
LLC

SHEET
LLC-total_access : 10155394
LLC-total_hit : 6473677
LLC-total_miss : 3681717
LLC-load_access : 208312
LLC-load_hit : 132811
LLC-load_miss : 75501
LLC-rfo_access : 3587060
LLC-rfo_hit : 687928
LLC-rfo_miss : 2899132
LLC-prefetch_access : 2691350
LLC-prefetch_hit : 1984265
LLC-prefetch_miss : 707085
LLC-writeback_access : 3668673
LLC-writeback_hit : 3668673
LLC-writeback_miss : 0
LLC-prefetch_requested : 0
LLC-prefetch_issued : 0
LLC-prefetch_useful : 163083
LLC-prefetch_useless : 540726
LLC-Avg_miss_latency : 462.395
LLC-Morteza_fill_l2_prefetches : 1163245

Major fault: 0 Minor fault: 4251



Printing Logs
statHeadFound: 1734388
statHeadMissing: 4997962
statStreamBufferHit: 6357809
statPrefetchEntryFound: 6216458
statCompactorMatch: 11821029
statStreamTrackerLookup: 13090159
statRecord: 1269130
statGetPointer: 6732350
statEnqueuePrefetch: 17892057
statPrefetchQueueIsFull: 42421
StreamBufferHitRate: 0.485694
Regions' size: 1636
next_region_correct: 743191
next_region_wrong: 524295
next_region_correct_prediction: 0.58635
statStreamBufferLookups: 130901590
statL1iLookups: 143136456
statCompactorLookups: 209442544
morteza: start

SHEET
mana_table_access_counter : 2298413
mana_table_multiple_access_counter : 6966808
hobp_table_access_counter : 65198894
sab_access_counter : 12574267
srq_access_counter : 12658063

morteza: end
CPU 0 L1D next line prefetcher final stats

DRAM Statistics
 CHANNEL 0
 RQ ROW_BUFFER_HIT:     992682  ROW_BUFFER_MISS:    2687492
 DBUS_CONGESTED:    5365496
 WQ ROW_BUFFER_HIT:     911868  ROW_BUFFER_MISS:    2171391  FULL:          0

 AVG_CONGESTED_CYCLE: 6

CPU 0 Branch Prediction Accuracy: 99.5987% MPKI: 0.82446 Average ROB Occupancy at Mispredict: 114.14

Branch types
NOT_BRANCH: 39726803 79.4536%
BRANCH_DIRECT_JUMP: 391438 0.782876%
BRANCH_INDIRECT: 62076 0.124152%
BRANCH_CONDITIONAL: 8421539 16.8431%
BRANCH_DIRECT_CALL: 672962 1.34592%
BRANCH_INDIRECT_CALL: 26115 0.05223%
BRANCH_RETURN: 699082 1.39816%
BRANCH_OTHER: 0 0%

