Initialize SIGNATURE TABLE
ST_SET: 1
ST_WAY: 256
ST_TAG_BIT: 16
ST_TAG_MASK: ffff

Initialize PATTERN TABLE
PT_SET: 512
PT_WAY: 4
SIG_DELTA_BIT: 7
C_SIG_BIT: 4
C_DELTA_BIT: 4

Initialize PREFETCH FILTER
FILTER_SET: 1024
MANA initialize 
tds: 2 tdm: 2
size MANA SINGLE: 15.5 KB
size MANA NULTIPLE: 0 KB
size HOBPT: 0.703125 KB
size SRQ: 0.14502 KB
size SABs: 0.290039 KB
size prefetch queue: 0.453125 KB
total: 17.0913 KB

*** ChampSim Multicore Out-of-Order Simulator ***

Warmup Instructions: 50000000
Simulation Instructions: 50000000
Number of CPUs: 1
LLC sets: 2048
LLC ways: 16
Off-chip DRAM Size: 4096 MB Channels: 1 Width: 64-bit Data Rate: 3200 MT/s

CPU 0 runs /home/mbaradaran/ChampSim/dpc3_traces/client_003.champsimtrace.xz
CPU 0 L1D next line prefetcher
Heartbeat CPU 0 instructions: 10000000 cycles: 3478588 heartbeat IPC: 2.87473 cumulative IPC: 2.87473 (Simulation time: 0 hr 1 min 37 sec) 
Heartbeat CPU 0 instructions: 20000002 cycles: 6933398 heartbeat IPC: 2.89452 cumulative IPC: 2.88459 (Simulation time: 0 hr 3 min 33 sec) 
Heartbeat CPU 0 instructions: 30000003 cycles: 10494753 heartbeat IPC: 2.80792 cumulative IPC: 2.85857 (Simulation time: 0 hr 5 min 33 sec) 
Heartbeat CPU 0 instructions: 40000001 cycles: 14111464 heartbeat IPC: 2.76494 cumulative IPC: 2.83457 (Simulation time: 0 hr 7 min 31 sec) 
Heartbeat CPU 0 instructions: 50000003 cycles: 17656844 heartbeat IPC: 2.82057 cumulative IPC: 2.83176 (Simulation time: 0 hr 9 min 20 sec) 

Warmup complete CPU 0 instructions: 50000003 cycles: 17656844 (Simulation time: 0 hr 9 min 20 sec) 

Heartbeat CPU 0 instructions: 60000002 cycles: 23998117 heartbeat IPC: 1.57697 cumulative IPC: 1.57697 (Simulation time: 0 hr 11 min 1 sec) 
Heartbeat CPU 0 instructions: 70000001 cycles: 30122883 heartbeat IPC: 1.63272 cumulative IPC: 1.60436 (Simulation time: 0 hr 12 min 40 sec) 
Heartbeat CPU 0 instructions: 80000001 cycles: 37084093 heartbeat IPC: 1.43653 cumulative IPC: 1.54422 (Simulation time: 0 hr 14 min 17 sec) 
Heartbeat CPU 0 instructions: 90000000 cycles: 46245878 heartbeat IPC: 1.09149 cumulative IPC: 1.39914 (Simulation time: 0 hr 15 min 37 sec) 
Heartbeat CPU 0 instructions: 100000003 cycles: 57148976 heartbeat IPC: 0.917171 cumulative IPC: 1.26608 (Simulation time: 0 hr 17 min 10 sec) 
Finished CPU 0 instructions: 50000000 cycles: 39492132 cumulative IPC: 1.26608 (Simulation time: 0 hr 17 min 10 sec) 

ChampSim completed all CPUs

Region of Interest Statistics

CPU 0 cumulative IPC: 1.26608 instructions: 50000000 cycles: 39492132

SHEET
IPC : 1.26608

L1D TOTAL     ACCESS:   17684784  HIT:   17188783  MISS:     496001
L1D LOAD      ACCESS:    6059015  HIT:    5932420  MISS:     126595
L1D RFO       ACCESS:    5956777  HIT:    5722430  MISS:     234347
L1D PREFETCH  ACCESS:    5668992  HIT:    5533933  MISS:     135059
L1D WRITEBACK ACCESS:          0  HIT:          0  MISS:          0
L1D PREFETCH  REQUESTED:    6100660  ISSUED:    5959149  USEFUL:      67118  USELESS:      67990
L1D AVERAGE MISS LATENCY: 123.891 cycles
L1D

SHEET
L1D-total_access : 17684784
L1D-total_hit : 17188783
L1D-total_miss : 496001
L1D-load_access : 6059015
L1D-load_hit : 5932420
L1D-load_miss : 126595
L1D-rfo_access : 5956777
L1D-rfo_hit : 5722430
L1D-rfo_miss : 234347
L1D-prefetch_access : 5668992
L1D-prefetch_hit : 5533933
L1D-prefetch_miss : 135059
L1D-writeback_access : 0
L1D-writeback_hit : 0
L1D-writeback_miss : 0
L1D-prefetch_requested : 6100660
L1D-prefetch_issued : 5959149
L1D-prefetch_useful : 67118
L1D-prefetch_useless : 67990
L1D-Avg_miss_latency : 123.891

L1I TOTAL     ACCESS:   17345308  HIT:   16689522  MISS:     655786
L1I LOAD      ACCESS:    9433445  HIT:    9290597  MISS:     142848
L1I RFO       ACCESS:          0  HIT:          0  MISS:          0
L1I PREFETCH  ACCESS:    7911863  HIT:    7398925  MISS:     512938
L1I WRITEBACK ACCESS:          0  HIT:          0  MISS:          0
L1I PREFETCH  REQUESTED:    8677420  ISSUED:    8426692  USEFUL:     327895  USELESS:     185111
L1I AVERAGE MISS LATENCY: 21.1678 cycles
L1I

SHEET
L1I-total_access : 17345308
L1I-total_hit : 16689522
L1I-total_miss : 655786
L1I-load_access : 9433445
L1I-load_hit : 9290597
L1I-load_miss : 142848
L1I-rfo_access : 0
L1I-rfo_hit : 0
L1I-rfo_miss : 0
L1I-prefetch_access : 7911863
L1I-prefetch_hit : 7398925
L1I-prefetch_miss : 512938
L1I-writeback_access : 0
L1I-writeback_hit : 0
L1I-writeback_miss : 0
L1I-prefetch_requested : 8677420
L1I-prefetch_issued : 8426692
L1I-prefetch_useful : 327895
L1I-prefetch_useless : 185111
L1I-Avg_miss_latency : 21.1678

L2C TOTAL     ACCESS:    1725270  HIT:    1331434  MISS:     393836
L2C LOAD      ACCESS:     209307  HIT:     157946  MISS:      51361
L2C RFO       ACCESS:     232330  HIT:      26090  MISS:     206240
L2C PREFETCH  ACCESS:    1014336  HIT:     879157  MISS:     135179
L2C WRITEBACK ACCESS:     269297  HIT:     268241  MISS:       1056
L2C PREFETCH  REQUESTED:    1161446  ISSUED:    1160861  USEFUL:      11735  USELESS:     122520
L2C AVERAGE MISS LATENCY: 169.577 cycles
L2C

SHEET
L2C-total_access : 1725270
L2C-total_hit : 1331434
L2C-total_miss : 393836
L2C-load_access : 209307
L2C-load_hit : 157946
L2C-load_miss : 51361
L2C-rfo_access : 232330
L2C-rfo_hit : 26090
L2C-rfo_miss : 206240
L2C-prefetch_access : 1014336
L2C-prefetch_hit : 879157
L2C-prefetch_miss : 135179
L2C-writeback_access : 269297
L2C-writeback_hit : 268241
L2C-writeback_miss : 1056
L2C-prefetch_requested : 1161446
L2C-prefetch_issued : 1160861
L2C-prefetch_useful : 11735
L2C-prefetch_useless : 122520
L2C-Avg_miss_latency : 169.577

LLC TOTAL     ACCESS:     981915  HIT:     697521  MISS:     284394
LLC LOAD      ACCESS:      51243  HIT:      36321  MISS:      14922
LLC RFO       ACCESS:     206233  HIT:      34529  MISS:     171704
LLC PREFETCH  ACCESS:     500447  HIT:     403036  MISS:      97411
LLC WRITEBACK ACCESS:     223992  HIT:     223635  MISS:        357
LLC PREFETCH  REQUESTED:          0  ISSUED:          0  USEFUL:      12742  USELESS:      83034
LLC AVERAGE MISS LATENCY: 233.994 cycles
LLC

SHEET
LLC-total_access : 981915
LLC-total_hit : 697521
LLC-total_miss : 284394
LLC-load_access : 51243
LLC-load_hit : 36321
LLC-load_miss : 14922
LLC-rfo_access : 206233
LLC-rfo_hit : 34529
LLC-rfo_miss : 171704
LLC-prefetch_access : 500447
LLC-prefetch_hit : 403036
LLC-prefetch_miss : 97411
LLC-writeback_access : 223992
LLC-writeback_hit : 223635
LLC-writeback_miss : 357
LLC-prefetch_requested : 0
LLC-prefetch_issued : 0
LLC-prefetch_useful : 12742
LLC-prefetch_useless : 83034
LLC-Avg_miss_latency : 233.994

Major fault: 0 Minor fault: 5042



Printing Logs
statHeadFound: 963489
statHeadMissing: 1621823
statStreamBufferHit: 11449297
statPrefetchEntryFound: 7219340
statCompactorMatch: 11731834
statStreamTrackerLookup: 14034609
statRecord: 2302775
statGetPointer: 2585312
statEnqueuePrefetch: 20170319
statPrefetchQueueIsFull: 30316
StreamBufferHitRate: 0.81579
Regions' size: 8201
next_region_correct: 1555227
next_region_wrong: 739329
next_region_correct_prediction: 0.67779
statStreamBufferLookups: 1010491848
statL1iLookups: 161362552
statCompactorLookups: 505245924
morteza: start

SHEET
mana_table_access_counter : 9552413
hobp_table_access_counter : 26801967
sab_access_counter : 18668637
srq_access_counter : 14772066

morteza: end
CPU 0 L1D next line prefetcher final stats

DRAM Statistics
 CHANNEL 0
 RQ ROW_BUFFER_HIT:      99390  ROW_BUFFER_MISS:     184641
 DBUS_CONGESTED:     257830
 WQ ROW_BUFFER_HIT:      59159  ROW_BUFFER_MISS:     120205  FULL:          0

 AVG_CONGESTED_CYCLE: 6

CPU 0 Branch Prediction Accuracy: 98.6631% MPKI: 2.66884 Average ROB Occupancy at Mispredict: 75.766

Branch types
NOT_BRANCH: 40018780 80.0376%
BRANCH_DIRECT_JUMP: 370861 0.741722%
BRANCH_INDIRECT: 83253 0.166506%
BRANCH_CONDITIONAL: 7877436 15.7549%
BRANCH_DIRECT_CALL: 722316 1.44463%
BRANCH_INDIRECT_CALL: 101901 0.203802%
BRANCH_RETURN: 825355 1.65071%
BRANCH_OTHER: 0 0%

