Initialize SIGNATURE TABLE
ST_SET: 1
ST_WAY: 256
ST_TAG_BIT: 16
ST_TAG_MASK: ffff

Initialize PATTERN TABLE
PT_SET: 512
PT_WAY: 4
SIG_DELTA_BIT: 7
C_SIG_BIT: 4
C_DELTA_BIT: 4

Initialize PREFETCH FILTER
FILTER_SET: 1024
MANA initialize 
tds: 2 tdm: 2
size MANA SINGLE: 15.5 KB
size MANA NULTIPLE: 0 KB
size HOBPT: 0.703125 KB
size SRQ: 0.14502 KB
size SABs: 0.290039 KB
size prefetch queue: 0.453125 KB
total: 17.0913 KB

*** ChampSim Multicore Out-of-Order Simulator ***

Warmup Instructions: 50000000
Simulation Instructions: 50000000
Number of CPUs: 1
LLC sets: 2048
LLC ways: 16
Off-chip DRAM Size: 4096 MB Channels: 1 Width: 64-bit Data Rate: 3200 MT/s

CPU 0 runs /home/mbaradaran/ChampSim/dpc3_traces/client_002.champsimtrace.xz
CPU 0 L1D next line prefetcher
Heartbeat CPU 0 instructions: 10000000 cycles: 3405514 heartbeat IPC: 2.93641 cumulative IPC: 2.93641 (Simulation time: 0 hr 1 min 36 sec) 
Heartbeat CPU 0 instructions: 20000002 cycles: 6861833 heartbeat IPC: 2.89325 cumulative IPC: 2.91467 (Simulation time: 0 hr 3 min 23 sec) 
Heartbeat CPU 0 instructions: 30000001 cycles: 10295150 heartbeat IPC: 2.91263 cumulative IPC: 2.91399 (Simulation time: 0 hr 5 min 13 sec) 
Heartbeat CPU 0 instructions: 40000002 cycles: 13728869 heartbeat IPC: 2.91229 cumulative IPC: 2.91357 (Simulation time: 0 hr 6 min 59 sec) 
Heartbeat CPU 0 instructions: 50000002 cycles: 17170325 heartbeat IPC: 2.90575 cumulative IPC: 2.912 (Simulation time: 0 hr 8 min 50 sec) 

Warmup complete CPU 0 instructions: 50000002 cycles: 17170325 (Simulation time: 0 hr 8 min 50 sec) 

Heartbeat CPU 0 instructions: 60000002 cycles: 23256447 heartbeat IPC: 1.64308 cumulative IPC: 1.64308 (Simulation time: 0 hr 10 min 30 sec) 
Heartbeat CPU 0 instructions: 70000001 cycles: 29400972 heartbeat IPC: 1.62746 cumulative IPC: 1.63524 (Simulation time: 0 hr 12 min 8 sec) 
Heartbeat CPU 0 instructions: 80000003 cycles: 35422419 heartbeat IPC: 1.66073 cumulative IPC: 1.64365 (Simulation time: 0 hr 13 min 51 sec) 
Heartbeat CPU 0 instructions: 90000000 cycles: 42025607 heartbeat IPC: 1.51442 cumulative IPC: 1.60932 (Simulation time: 0 hr 15 min 28 sec) 
Heartbeat CPU 0 instructions: 100000003 cycles: 48105652 heartbeat IPC: 1.64473 cumulative IPC: 1.61628 (Simulation time: 0 hr 16 min 59 sec) 
Finished CPU 0 instructions: 50000001 cycles: 30935327 cumulative IPC: 1.61628 (Simulation time: 0 hr 16 min 59 sec) 

ChampSim completed all CPUs

Region of Interest Statistics

CPU 0 cumulative IPC: 1.61628 instructions: 50000001 cycles: 30935327

SHEET
IPC : 1.61628

L1D TOTAL     ACCESS:   19219477  HIT:   18880121  MISS:     339356
L1D LOAD      ACCESS:    6529551  HIT:    6412885  MISS:     116666
L1D RFO       ACCESS:    6422480  HIT:    6332755  MISS:      89725
L1D PREFETCH  ACCESS:    6267446  HIT:    6134481  MISS:     132965
L1D WRITEBACK ACCESS:          0  HIT:          0  MISS:          0
L1D PREFETCH  REQUESTED:    6539894  ISSUED:    6337028  USEFUL:      54050  USELESS:      79057
L1D AVERAGE MISS LATENCY: 49.2341 cycles
L1D

SHEET
L1D-total_access : 19219477
L1D-total_hit : 18880121
L1D-total_miss : 339356
L1D-load_access : 6529551
L1D-load_hit : 6412885
L1D-load_miss : 116666
L1D-rfo_access : 6422480
L1D-rfo_hit : 6332755
L1D-rfo_miss : 89725
L1D-prefetch_access : 6267446
L1D-prefetch_hit : 6134481
L1D-prefetch_miss : 132965
L1D-writeback_access : 0
L1D-writeback_hit : 0
L1D-writeback_miss : 0
L1D-prefetch_requested : 6539894
L1D-prefetch_issued : 6337028
L1D-prefetch_useful : 54050
L1D-prefetch_useless : 79057
L1D-Avg_miss_latency : 49.2341

L1I TOTAL     ACCESS:   19315770  HIT:   18598650  MISS:     717120
L1I LOAD      ACCESS:    9514529  HIT:    9335671  MISS:     178858
L1I RFO       ACCESS:          0  HIT:          0  MISS:          0
L1I PREFETCH  ACCESS:    9801241  HIT:    9262979  MISS:     538262
L1I WRITEBACK ACCESS:          0  HIT:          0  MISS:          0
L1I PREFETCH  REQUESTED:   10933125  ISSUED:   10554268  USEFUL:     353487  USELESS:     184717
L1I AVERAGE MISS LATENCY: 18.4036 cycles
L1I

SHEET
L1I-total_access : 19315770
L1I-total_hit : 18598650
L1I-total_miss : 717120
L1I-load_access : 9514529
L1I-load_hit : 9335671
L1I-load_miss : 178858
L1I-rfo_access : 0
L1I-rfo_hit : 0
L1I-rfo_miss : 0
L1I-prefetch_access : 9801241
L1I-prefetch_hit : 9262979
L1I-prefetch_miss : 538262
L1I-writeback_access : 0
L1I-writeback_hit : 0
L1I-writeback_miss : 0
L1I-prefetch_requested : 10933125
L1I-prefetch_issued : 10554268
L1I-prefetch_useful : 353487
L1I-prefetch_useless : 184717
L1I-Avg_miss_latency : 18.4036

L2C TOTAL     ACCESS:    1504286  HIT:    1262165  MISS:     242121
L2C LOAD      ACCESS:     248129  HIT:     184185  MISS:      63944
L2C RFO       ACCESS:      88766  HIT:      22782  MISS:      65984
L2C PREFETCH  ACCESS:    1041911  HIT:     930256  MISS:     111655
L2C WRITEBACK ACCESS:     125480  HIT:     124942  MISS:        538
L2C PREFETCH  REQUESTED:    1008941  ISSUED:    1008212  USEFUL:      15606  USELESS:      94995
L2C AVERAGE MISS LATENCY: 64.2418 cycles
L2C

SHEET
L2C-total_access : 1504286
L2C-total_hit : 1262165
L2C-total_miss : 242121
L2C-load_access : 248129
L2C-load_hit : 184185
L2C-load_miss : 63944
L2C-rfo_access : 88766
L2C-rfo_hit : 22782
L2C-rfo_miss : 65984
L2C-prefetch_access : 1041911
L2C-prefetch_hit : 930256
L2C-prefetch_miss : 111655
L2C-writeback_access : 125480
L2C-writeback_hit : 124942
L2C-writeback_miss : 538
L2C-prefetch_requested : 1008941
L2C-prefetch_issued : 1008212
L2C-prefetch_useful : 15606
L2C-prefetch_useless : 94995
L2C-Avg_miss_latency : 64.2418

LLC TOTAL     ACCESS:     584232  HIT:     523049  MISS:      61183
LLC LOAD      ACCESS:      63944  HIT:      57851  MISS:       6093
LLC RFO       ACCESS:      65980  HIT:      36427  MISS:      29553
LLC PREFETCH  ACCESS:     369908  HIT:     344579  MISS:      25329
LLC WRITEBACK ACCESS:      84400  HIT:      84192  MISS:        208
LLC PREFETCH  REQUESTED:          0  ISSUED:          0  USEFUL:       6266  USELESS:      18002
LLC AVERAGE MISS LATENCY: 179.419 cycles
LLC

SHEET
LLC-total_access : 584232
LLC-total_hit : 523049
LLC-total_miss : 61183
LLC-load_access : 63944
LLC-load_hit : 57851
LLC-load_miss : 6093
LLC-rfo_access : 65980
LLC-rfo_hit : 36427
LLC-rfo_miss : 29553
LLC-prefetch_access : 369908
LLC-prefetch_hit : 344579
LLC-prefetch_miss : 25329
LLC-writeback_access : 84400
LLC-writeback_hit : 84192
LLC-writeback_miss : 208
LLC-prefetch_requested : 0
LLC-prefetch_issued : 0
LLC-prefetch_useful : 6266
LLC-prefetch_useless : 18002
LLC-Avg_miss_latency : 179.419

Major fault: 0 Minor fault: 3091



Printing Logs
statHeadFound: 946333
statHeadMissing: 946718
statStreamBufferHit: 13355244
statPrefetchEntryFound: 7259131
statCompactorMatch: 13008665
statStreamTrackerLookup: 15248295
statRecord: 2239630
statGetPointer: 1893051
statEnqueuePrefetch: 21069804
statPrefetchQueueIsFull: 46753
StreamBufferHitRate: 0.875852
Regions' size: 5853
next_region_correct: 1480436
next_region_wrong: 753323
next_region_correct_prediction: 0.662755
statStreamBufferLookups: 1097877240
statL1iLookups: 168558432
statCompactorLookups: 548938620
morteza: start

SHEET
mana_table_access_counter : 9545496
hobp_table_access_counter : 23836575
sab_access_counter : 20614375
srq_access_counter : 15650523

morteza: end
CPU 0 L1D next line prefetcher final stats

DRAM Statistics
 CHANNEL 0
 RQ ROW_BUFFER_HIT:      21826  ROW_BUFFER_MISS:      39149
 DBUS_CONGESTED:      45110
 WQ ROW_BUFFER_HIT:       9039  ROW_BUFFER_MISS:      28056  FULL:          0

 AVG_CONGESTED_CYCLE: 6

CPU 0 Branch Prediction Accuracy: 99.2117% MPKI: 1.49752 Average ROB Occupancy at Mispredict: 106.79

Branch types
NOT_BRANCH: 40501616 81.0032%
BRANCH_DIRECT_JUMP: 517397 1.03479%
BRANCH_INDIRECT: 112348 0.224696%
BRANCH_CONDITIONAL: 6698737 13.3975%
BRANCH_DIRECT_CALL: 960974 1.92195%
BRANCH_INDIRECT_CALL: 123707 0.247414%
BRANCH_RETURN: 1084929 2.16986%
BRANCH_OTHER: 0 0%

