Initialize SIGNATURE TABLE
ST_SET: 1
ST_WAY: 256
ST_TAG_BIT: 16
ST_TAG_MASK: ffff

Initialize PATTERN TABLE
PT_SET: 512
PT_WAY: 4
SIG_DELTA_BIT: 7
C_SIG_BIT: 4
C_DELTA_BIT: 4

Initialize PREFETCH FILTER
FILTER_SET: 1024
MANA initialize 
tds: 2 tdm: 2
size MANA SINGLE: 15.5 KB
size MANA NULTIPLE: 0 KB
size HOBPT: 0.703125 KB
size SRQ: 0.14502 KB
size SABs: 0.290039 KB
size prefetch queue: 0.453125 KB
total: 17.0913 KB

*** ChampSim Multicore Out-of-Order Simulator ***

Warmup Instructions: 50000000
Simulation Instructions: 50000000
Number of CPUs: 1
LLC sets: 2048
LLC ways: 16
Off-chip DRAM Size: 4096 MB Channels: 1 Width: 64-bit Data Rate: 3200 MT/s

CPU 0 runs /home/mbaradaran/ChampSim/dpc3_traces/server_022.champsimtrace.xz
CPU 0 L1D next line prefetcher
Heartbeat CPU 0 instructions: 10000002 cycles: 3624810 heartbeat IPC: 2.75877 cumulative IPC: 2.75877 (Simulation time: 0 hr 1 min 55 sec) 
Heartbeat CPU 0 instructions: 20000001 cycles: 7255911 heartbeat IPC: 2.75399 cumulative IPC: 2.75637 (Simulation time: 0 hr 3 min 55 sec) 
Heartbeat CPU 0 instructions: 30000003 cycles: 10880604 heartbeat IPC: 2.75885 cumulative IPC: 2.7572 (Simulation time: 0 hr 5 min 54 sec) 
Heartbeat CPU 0 instructions: 40000003 cycles: 14513045 heartbeat IPC: 2.75297 cumulative IPC: 2.75614 (Simulation time: 0 hr 7 min 51 sec) 
Heartbeat CPU 0 instructions: 50000002 cycles: 18135530 heartbeat IPC: 2.76054 cumulative IPC: 2.75702 (Simulation time: 0 hr 9 min 48 sec) 

Warmup complete CPU 0 instructions: 50000002 cycles: 18135530 (Simulation time: 0 hr 9 min 48 sec) 

Heartbeat CPU 0 instructions: 60000000 cycles: 34974104 heartbeat IPC: 0.593874 cumulative IPC: 0.593874 (Simulation time: 0 hr 12 min 33 sec) 
Heartbeat CPU 0 instructions: 70000001 cycles: 51973244 heartbeat IPC: 0.588265 cumulative IPC: 0.591056 (Simulation time: 0 hr 15 min 15 sec) 
Heartbeat CPU 0 instructions: 80000001 cycles: 68723505 heartbeat IPC: 0.597006 cumulative IPC: 0.593026 (Simulation time: 0 hr 17 min 53 sec) 
Heartbeat CPU 0 instructions: 90000003 cycles: 85773336 heartbeat IPC: 0.586516 cumulative IPC: 0.591385 (Simulation time: 0 hr 20 min 38 sec) 
Heartbeat CPU 0 instructions: 100000003 cycles: 102597806 heartbeat IPC: 0.594372 cumulative IPC: 0.59198 (Simulation time: 0 hr 23 min 3 sec) 
Finished CPU 0 instructions: 50000001 cycles: 84462276 cumulative IPC: 0.59198 (Simulation time: 0 hr 23 min 3 sec) 

ChampSim completed all CPUs

Region of Interest Statistics

CPU 0 cumulative IPC: 0.59198 instructions: 50000001 cycles: 84462276

SHEET
IPC : 0.59198

L1D TOTAL     ACCESS:   18726129  HIT:   16515317  MISS:    2210812
L1D LOAD      ACCESS:    7064382  HIT:    6356014  MISS:     708368
L1D RFO       ACCESS:    5894200  HIT:    4914723  MISS:     979477
L1D PREFETCH  ACCESS:    5767547  HIT:    5244580  MISS:     522967
L1D WRITEBACK ACCESS:          0  HIT:          0  MISS:          0
L1D PREFETCH  REQUESTED:    7106775  ISSUED:    6899319  USEFUL:     201705  USELESS:     321267
L1D AVERAGE MISS LATENCY: 178.25 cycles
L1D

SHEET
L1D-total_access : 18726129
L1D-total_hit : 16515317
L1D-total_miss : 2210812
L1D-load_access : 7064382
L1D-load_hit : 6356014
L1D-load_miss : 708368
L1D-rfo_access : 5894200
L1D-rfo_hit : 4914723
L1D-rfo_miss : 979477
L1D-prefetch_access : 5767547
L1D-prefetch_hit : 5244580
L1D-prefetch_miss : 522967
L1D-writeback_access : 0
L1D-writeback_hit : 0
L1D-writeback_miss : 0
L1D-prefetch_requested : 7106775
L1D-prefetch_issued : 6899319
L1D-prefetch_useful : 201705
L1D-prefetch_useless : 321267
L1D-Avg_miss_latency : 178.25

L1I TOTAL     ACCESS:   17389591  HIT:   14836956  MISS:    2552635
L1I LOAD      ACCESS:   10056869  HIT:    9820395  MISS:     236474
L1I RFO       ACCESS:          0  HIT:          0  MISS:          0
L1I PREFETCH  ACCESS:    7332722  HIT:    5016561  MISS:    2316161
L1I WRITEBACK ACCESS:          0  HIT:          0  MISS:          0
L1I PREFETCH  REQUESTED:    7730153  ISSUED:    7614359  USEFUL:    2127876  USELESS:     188292
L1I AVERAGE MISS LATENCY: 17.4232 cycles
L1I

SHEET
L1I-total_access : 17389591
L1I-total_hit : 14836956
L1I-total_miss : 2552635
L1I-load_access : 10056869
L1I-load_hit : 9820395
L1I-load_miss : 236474
L1I-rfo_access : 0
L1I-rfo_hit : 0
L1I-rfo_miss : 0
L1I-prefetch_access : 7332722
L1I-prefetch_hit : 5016561
L1I-prefetch_miss : 2316161
L1I-writeback_access : 0
L1I-writeback_hit : 0
L1I-writeback_miss : 0
L1I-prefetch_requested : 7730153
L1I-prefetch_issued : 7614359
L1I-prefetch_useful : 2127876
L1I-prefetch_useless : 188292
L1I-Avg_miss_latency : 17.4232

L2C TOTAL     ACCESS:    6911275  HIT:    5049680  MISS:    1861595
L2C LOAD      ACCESS:     632428  HIT:     379538  MISS:     252890
L2C RFO       ACCESS:     979033  HIT:      20398  MISS:     958635
L2C PREFETCH  ACCESS:    4114629  HIT:    3466695  MISS:     647934
L2C WRITEBACK ACCESS:    1185185  HIT:    1183049  MISS:       2136
L2C PREFETCH  REQUESTED:    4000213  ISSUED:    3995643  USEFUL:      24890  USELESS:     622988
L2C AVERAGE MISS LATENCY: 217.491 cycles
L2C

SHEET
L2C-total_access : 6911275
L2C-total_hit : 5049680
L2C-total_miss : 1861595
L2C-load_access : 632428
L2C-load_hit : 379538
L2C-load_miss : 252890
L2C-rfo_access : 979033
L2C-rfo_hit : 20398
L2C-rfo_miss : 958635
L2C-prefetch_access : 4114629
L2C-prefetch_hit : 3466695
L2C-prefetch_miss : 647934
L2C-writeback_access : 1185185
L2C-writeback_hit : 1183049
L2C-writeback_miss : 2136
L2C-prefetch_requested : 4000213
L2C-prefetch_issued : 3995643
L2C-prefetch_useful : 24890
L2C-prefetch_useless : 622988
L2C-Avg_miss_latency : 217.491

LLC TOTAL     ACCESS:    4053097  HIT:    2666599  MISS:    1386498
LLC LOAD      ACCESS:     252755  HIT:     178508  MISS:      74247
LLC RFO       ACCESS:     958632  HIT:     141859  MISS:     816773
LLC PREFETCH  ACCESS:    1724569  HIT:    1231173  MISS:     493396
LLC WRITEBACK ACCESS:    1117141  HIT:    1115059  MISS:       2082
LLC PREFETCH  REQUESTED:          0  ISSUED:          0  USEFUL:      28322  USELESS:     465397
LLC AVERAGE MISS LATENCY: 288.775 cycles
LLC

SHEET
LLC-total_access : 4053097
LLC-total_hit : 2666599
LLC-total_miss : 1386498
LLC-load_access : 252755
LLC-load_hit : 178508
LLC-load_miss : 74247
LLC-rfo_access : 958632
LLC-rfo_hit : 141859
LLC-rfo_miss : 816773
LLC-prefetch_access : 1724569
LLC-prefetch_hit : 1231173
LLC-prefetch_miss : 493396
LLC-writeback_access : 1117141
LLC-writeback_hit : 1115059
LLC-writeback_miss : 2082
LLC-prefetch_requested : 0
LLC-prefetch_issued : 0
LLC-prefetch_useful : 28322
LLC-prefetch_useless : 465397
LLC-Avg_miss_latency : 288.775

Major fault: 0 Minor fault: 23505



Printing Logs
statHeadFound: 502539
statHeadMissing: 1195314
statStreamBufferHit: 11899844
statPrefetchEntryFound: 4833289
statCompactorMatch: 11201343
statStreamTrackerLookup: 13597697
statRecord: 2396354
statGetPointer: 1697853
statEnqueuePrefetch: 15091491
statPrefetchQueueIsFull: 813
StreamBufferHitRate: 0.875137
Regions' size: 1278
next_region_correct: 2032237
next_region_wrong: 362821
next_region_correct_prediction: 0.848513
statStreamBufferLookups: 979034184
statL1iLookups: 120731928
statCompactorLookups: 489517092
morteza: start

SHEET
mana_table_access_counter : 7230438
hobp_table_access_counter : 21210891
sab_access_counter : 16733133
srq_access_counter : 15018552

morteza: end
CPU 0 L1D next line prefetcher final stats

DRAM Statistics
 CHANNEL 0
 RQ ROW_BUFFER_HIT:     401137  ROW_BUFFER_MISS:     982993
 DBUS_CONGESTED:    1427287
 WQ ROW_BUFFER_HIT:     273524  ROW_BUFFER_MISS:     627730  FULL:          0

 AVG_CONGESTED_CYCLE: 6

CPU 0 Branch Prediction Accuracy: 99.8317% MPKI: 0.27564 Average ROB Occupancy at Mispredict: 217.231

Branch types
NOT_BRANCH: 41811143 83.6223%
BRANCH_DIRECT_JUMP: 445742 0.891484%
BRANCH_INDIRECT: 48876 0.097752%
BRANCH_CONDITIONAL: 5859406 11.7188%
BRANCH_DIRECT_CALL: 758267 1.51653%
BRANCH_INDIRECT_CALL: 159103 0.318206%
BRANCH_RETURN: 917372 1.83474%
BRANCH_OTHER: 0 0%

