Initialize SIGNATURE TABLE
ST_SET: 1
ST_WAY: 256
ST_TAG_BIT: 16
ST_TAG_MASK: ffff

Initialize PATTERN TABLE
PT_SET: 512
PT_WAY: 4
SIG_DELTA_BIT: 7
C_SIG_BIT: 4
C_DELTA_BIT: 4

Initialize PREFETCH FILTER
FILTER_SET: 1024
MANA initialize 
tds: 2 tdm: 2
size MANA SINGLE: 15.5 KB
size MANA NULTIPLE: 0 KB
size HOBPT: 0.703125 KB
size SRQ: 0.14502 KB
size SABs: 0.290039 KB
size prefetch queue: 0.453125 KB
total: 17.0913 KB

*** ChampSim Multicore Out-of-Order Simulator ***

Warmup Instructions: 50000000
Simulation Instructions: 50000000
Number of CPUs: 1
LLC sets: 2048
LLC ways: 16
Off-chip DRAM Size: 4096 MB Channels: 1 Width: 64-bit Data Rate: 3200 MT/s

CPU 0 runs /home/mbaradaran/ChampSim/dpc3_traces/server_013.champsimtrace.xz
CPU 0 L1D next line prefetcher
Heartbeat CPU 0 instructions: 10000000 cycles: 3219175 heartbeat IPC: 3.10639 cumulative IPC: 3.10639 (Simulation time: 0 hr 1 min 50 sec) 
Heartbeat CPU 0 instructions: 20000001 cycles: 6428338 heartbeat IPC: 3.11608 cumulative IPC: 3.11122 (Simulation time: 0 hr 3 min 32 sec) 
Heartbeat CPU 0 instructions: 30000002 cycles: 9641329 heartbeat IPC: 3.11237 cumulative IPC: 3.1116 (Simulation time: 0 hr 5 min 24 sec) 
Heartbeat CPU 0 instructions: 40000002 cycles: 12850072 heartbeat IPC: 3.11649 cumulative IPC: 3.11282 (Simulation time: 0 hr 7 min 12 sec) 
Heartbeat CPU 0 instructions: 50000000 cycles: 16059493 heartbeat IPC: 3.11583 cumulative IPC: 3.11342 (Simulation time: 0 hr 8 min 53 sec) 

Warmup complete CPU 0 instructions: 50000004 cycles: 16059494 (Simulation time: 0 hr 8 min 53 sec) 

Heartbeat CPU 0 instructions: 60000002 cycles: 24123364 heartbeat IPC: 1.2401 cumulative IPC: 1.2401 (Simulation time: 0 hr 10 min 26 sec) 
Heartbeat CPU 0 instructions: 70000003 cycles: 32442294 heartbeat IPC: 1.20208 cumulative IPC: 1.22079 (Simulation time: 0 hr 12 min 5 sec) 
Heartbeat CPU 0 instructions: 80000003 cycles: 40173431 heartbeat IPC: 1.29347 cumulative IPC: 1.24409 (Simulation time: 0 hr 13 min 45 sec) 
Heartbeat CPU 0 instructions: 90000003 cycles: 48093396 heartbeat IPC: 1.26263 cumulative IPC: 1.24868 (Simulation time: 0 hr 15 min 16 sec) 
Heartbeat CPU 0 instructions: 100000003 cycles: 55998945 heartbeat IPC: 1.26493 cumulative IPC: 1.25189 (Simulation time: 0 hr 16 min 46 sec) 
Finished CPU 0 instructions: 50000003 cycles: 39939452 cumulative IPC: 1.2519 (Simulation time: 0 hr 16 min 46 sec) 

ChampSim completed all CPUs

Region of Interest Statistics

CPU 0 cumulative IPC: 1.2519 instructions: 50000003 cycles: 39939452

SHEET
IPC : 1.2519

L1D TOTAL     ACCESS:   17546000  HIT:   16479184  MISS:    1066816
L1D LOAD      ACCESS:    6422444  HIT:    5923578  MISS:     498866
L1D RFO       ACCESS:    4939413  HIT:    4859110  MISS:      80303
L1D PREFETCH  ACCESS:    6184143  HIT:    5696496  MISS:     487647
L1D WRITEBACK ACCESS:          0  HIT:          0  MISS:          0
L1D PREFETCH  REQUESTED:    6458203  ISSUED:    6361410  USEFUL:     135772  USELESS:     351876
L1D AVERAGE MISS LATENCY: 42.4178 cycles
L1D

SHEET
L1D-total_access : 17546000
L1D-total_hit : 16479184
L1D-total_miss : 1066816
L1D-load_access : 6422444
L1D-load_hit : 5923578
L1D-load_miss : 498866
L1D-rfo_access : 4939413
L1D-rfo_hit : 4859110
L1D-rfo_miss : 80303
L1D-prefetch_access : 6184143
L1D-prefetch_hit : 5696496
L1D-prefetch_miss : 487647
L1D-writeback_access : 0
L1D-writeback_hit : 0
L1D-writeback_miss : 0
L1D-prefetch_requested : 6458203
L1D-prefetch_issued : 6361410
L1D-prefetch_useful : 135772
L1D-prefetch_useless : 351876
L1D-Avg_miss_latency : 42.4178

L1I TOTAL     ACCESS:   15875695  HIT:   13520726  MISS:    2354969
L1I LOAD      ACCESS:    8628417  HIT:    8242623  MISS:     385794
L1I RFO       ACCESS:          0  HIT:          0  MISS:          0
L1I PREFETCH  ACCESS:    7247278  HIT:    5278103  MISS:    1969175
L1I WRITEBACK ACCESS:          0  HIT:          0  MISS:          0
L1I PREFETCH  REQUESTED:    8187673  ISSUED:    7593077  USEFUL:    1057202  USELESS:     912058
L1I AVERAGE MISS LATENCY: 28.3733 cycles
L1I

SHEET
L1I-total_access : 15875695
L1I-total_hit : 13520726
L1I-total_miss : 2354969
L1I-load_access : 8628417
L1I-load_hit : 8242623
L1I-load_miss : 385794
L1I-rfo_access : 0
L1I-rfo_hit : 0
L1I-rfo_miss : 0
L1I-prefetch_access : 7247278
L1I-prefetch_hit : 5278103
L1I-prefetch_miss : 1969175
L1I-writeback_access : 0
L1I-writeback_hit : 0
L1I-writeback_miss : 0
L1I-prefetch_requested : 8187673
L1I-prefetch_issued : 7593077
L1I-prefetch_useful : 1057202
L1I-prefetch_useless : 912058
L1I-Avg_miss_latency : 28.3733

L2C TOTAL     ACCESS:    4329254  HIT:    2936748  MISS:    1392506
L2C LOAD      ACCESS:     771118  HIT:     358793  MISS:     412325
L2C RFO       ACCESS:      78990  HIT:      29309  MISS:      49681
L2C PREFETCH  ACCESS:    3203352  HIT:    2276130  MISS:     927222
L2C WRITEBACK ACCESS:     275794  HIT:     272516  MISS:       3278
L2C PREFETCH  REQUESTED:    4244655  ISSUED:    4238320  USEFUL:      60953  USELESS:     865522
L2C AVERAGE MISS LATENCY: 46.0064 cycles
L2C

SHEET
L2C-total_access : 4329254
L2C-total_hit : 2936748
L2C-total_miss : 1392506
L2C-load_access : 771118
L2C-load_hit : 358793
L2C-load_miss : 412325
L2C-rfo_access : 78990
L2C-rfo_hit : 29309
L2C-rfo_miss : 49681
L2C-prefetch_access : 3203352
L2C-prefetch_hit : 2276130
L2C-prefetch_miss : 927222
L2C-writeback_access : 275794
L2C-writeback_hit : 272516
L2C-writeback_miss : 3278
L2C-prefetch_requested : 4244655
L2C-prefetch_issued : 4238320
L2C-prefetch_useful : 60953
L2C-prefetch_useless : 865522
L2C-Avg_miss_latency : 46.0064

LLC TOTAL     ACCESS:    2747709  HIT:    2580798  MISS:     166911
LLC LOAD      ACCESS:     411156  HIT:     383250  MISS:      27906
LLC RFO       ACCESS:      49665  HIT:      39517  MISS:      10148
LLC PREFETCH  ACCESS:    2107614  HIT:    1978947  MISS:     128667
LLC WRITEBACK ACCESS:     179274  HIT:     179084  MISS:        190
LLC PREFETCH  REQUESTED:          0  ISSUED:          0  USEFUL:      15277  USELESS:     111607
LLC AVERAGE MISS LATENCY: 172.174 cycles
LLC

SHEET
LLC-total_access : 2747709
LLC-total_hit : 2580798
LLC-total_miss : 166911
LLC-load_access : 411156
LLC-load_hit : 383250
LLC-load_miss : 27906
LLC-rfo_access : 49665
LLC-rfo_hit : 39517
LLC-rfo_miss : 10148
LLC-prefetch_access : 2107614
LLC-prefetch_hit : 1978947
LLC-prefetch_miss : 128667
LLC-writeback_access : 179274
LLC-writeback_hit : 179084
LLC-writeback_miss : 190
LLC-prefetch_requested : 0
LLC-prefetch_issued : 0
LLC-prefetch_useful : 15277
LLC-prefetch_useless : 111607
LLC-Avg_miss_latency : 172.174

Major fault: 0 Minor fault: 6200



Printing Logs
statHeadFound: 480868
statHeadMissing: 733456
statStreamBufferHit: 10856188
statPrefetchEntryFound: 4177049
statCompactorMatch: 10209314
statStreamTrackerLookup: 12070512
statRecord: 1861198
statGetPointer: 1214324
statEnqueuePrefetch: 14951932
statPrefetchQueueIsFull: 62136
StreamBufferHitRate: 0.899397
Regions' size: 3952
next_region_correct: 1521336
next_region_wrong: 335892
next_region_correct_prediction: 0.819143
statStreamBufferLookups: 869076864
statL1iLookups: 119615456
statCompactorLookups: 434538432
morteza: start

SHEET
mana_table_access_counter : 6100365
hobp_table_access_counter : 16541288
sab_access_counter : 15033237
srq_access_counter : 12580424

morteza: end
CPU 0 L1D next line prefetcher final stats

DRAM Statistics
 CHANNEL 0
 RQ ROW_BUFFER_HIT:      26692  ROW_BUFFER_MISS:     140021
 DBUS_CONGESTED:      75931
 WQ ROW_BUFFER_HIT:      12084  ROW_BUFFER_MISS:      52318  FULL:          0

 AVG_CONGESTED_CYCLE: 5

CPU 0 Branch Prediction Accuracy: 99.4114% MPKI: 1.0933 Average ROB Occupancy at Mispredict: 106.251

Branch types
NOT_BRANCH: 40713233 81.4265%
BRANCH_DIRECT_JUMP: 463701 0.927402%
BRANCH_INDIRECT: 146544 0.293088%
BRANCH_CONDITIONAL: 6981950 13.9639%
BRANCH_DIRECT_CALL: 665005 1.33001%
BRANCH_INDIRECT_CALL: 165152 0.330304%
BRANCH_RETURN: 864311 1.72862%
BRANCH_OTHER: 0 0%

