Initialize SIGNATURE TABLE
ST_SET: 1
ST_WAY: 256
ST_TAG_BIT: 16
ST_TAG_MASK: ffff

Initialize PATTERN TABLE
PT_SET: 512
PT_WAY: 4
SIG_DELTA_BIT: 7
C_SIG_BIT: 4
C_DELTA_BIT: 4

Initialize PREFETCH FILTER
FILTER_SET: 1024
MANA initialize 
tds: 2 tdm: 2
size MANA SINGLE: 15.5 KB
size MANA NULTIPLE: 0 KB
size HOBPT: 0.703125 KB
size SRQ: 0.14502 KB
size SABs: 0.290039 KB
size prefetch queue: 0.453125 KB
total: 17.0913 KB

*** ChampSim Multicore Out-of-Order Simulator ***

Warmup Instructions: 50000000
Simulation Instructions: 50000000
Number of CPUs: 1
LLC sets: 2048
LLC ways: 16
Off-chip DRAM Size: 4096 MB Channels: 1 Width: 64-bit Data Rate: 3200 MT/s

CPU 0 runs /home/mbaradaran/ChampSim/dpc3_traces/server_011.champsimtrace.xz
CPU 0 L1D next line prefetcher
Heartbeat CPU 0 instructions: 10000002 cycles: 3210942 heartbeat IPC: 3.11435 cumulative IPC: 3.11435 (Simulation time: 0 hr 1 min 47 sec) 
Heartbeat CPU 0 instructions: 20000001 cycles: 6427510 heartbeat IPC: 3.1089 cumulative IPC: 3.11162 (Simulation time: 0 hr 3 min 28 sec) 
Heartbeat CPU 0 instructions: 30000001 cycles: 9688053 heartbeat IPC: 3.06697 cumulative IPC: 3.0966 (Simulation time: 0 hr 5 min 10 sec) 
Heartbeat CPU 0 instructions: 40000003 cycles: 12896196 heartbeat IPC: 3.11707 cumulative IPC: 3.10169 (Simulation time: 0 hr 6 min 57 sec) 
Heartbeat CPU 0 instructions: 50000000 cycles: 16110342 heartbeat IPC: 3.11125 cumulative IPC: 3.1036 (Simulation time: 0 hr 8 min 45 sec) 

Warmup complete CPU 0 instructions: 50000004 cycles: 16110343 (Simulation time: 0 hr 8 min 45 sec) 

Heartbeat CPU 0 instructions: 60000002 cycles: 24056807 heartbeat IPC: 1.25842 cumulative IPC: 1.25842 (Simulation time: 0 hr 10 min 20 sec) 
Heartbeat CPU 0 instructions: 70000001 cycles: 32466416 heartbeat IPC: 1.18912 cumulative IPC: 1.22279 (Simulation time: 0 hr 11 min 57 sec) 
Heartbeat CPU 0 instructions: 80000003 cycles: 41790444 heartbeat IPC: 1.0725 cumulative IPC: 1.16822 (Simulation time: 0 hr 13 min 27 sec) 
Heartbeat CPU 0 instructions: 90000001 cycles: 49956443 heartbeat IPC: 1.22459 cumulative IPC: 1.18182 (Simulation time: 0 hr 15 min 3 sec) 
Heartbeat CPU 0 instructions: 100000000 cycles: 57920371 heartbeat IPC: 1.25566 cumulative IPC: 1.19589 (Simulation time: 0 hr 16 min 37 sec) 
Finished CPU 0 instructions: 50000003 cycles: 41810040 cumulative IPC: 1.19589 (Simulation time: 0 hr 16 min 37 sec) 

ChampSim completed all CPUs

Region of Interest Statistics

CPU 0 cumulative IPC: 1.19589 instructions: 50000003 cycles: 41810040

SHEET
IPC : 1.19589

L1D TOTAL     ACCESS:   18364502  HIT:   17333165  MISS:    1031337
L1D LOAD      ACCESS:    6878702  HIT:    6399597  MISS:     479105
L1D RFO       ACCESS:    4843242  HIT:    4761152  MISS:      82090
L1D PREFETCH  ACCESS:    6642558  HIT:    6172416  MISS:     470142
L1D WRITEBACK ACCESS:          0  HIT:          0  MISS:          0
L1D PREFETCH  REQUESTED:    6916121  ISSUED:    6821842  USEFUL:     139713  USELESS:     330423
L1D AVERAGE MISS LATENCY: 40.3284 cycles
L1D

SHEET
L1D-total_access : 18364502
L1D-total_hit : 17333165
L1D-total_miss : 1031337
L1D-load_access : 6878702
L1D-load_hit : 6399597
L1D-load_miss : 479105
L1D-rfo_access : 4843242
L1D-rfo_hit : 4761152
L1D-rfo_miss : 82090
L1D-prefetch_access : 6642558
L1D-prefetch_hit : 6172416
L1D-prefetch_miss : 470142
L1D-writeback_access : 0
L1D-writeback_hit : 0
L1D-writeback_miss : 0
L1D-prefetch_requested : 6916121
L1D-prefetch_issued : 6821842
L1D-prefetch_useful : 139713
L1D-prefetch_useless : 330423
L1D-Avg_miss_latency : 40.3284

L1I TOTAL     ACCESS:   15945343  HIT:   13914638  MISS:    2030705
L1I LOAD      ACCESS:    8822818  HIT:    8475947  MISS:     346871
L1I RFO       ACCESS:          0  HIT:          0  MISS:          0
L1I PREFETCH  ACCESS:    7122525  HIT:    5438691  MISS:    1683834
L1I WRITEBACK ACCESS:          0  HIT:          0  MISS:          0
L1I PREFETCH  REQUESTED:    7944513  ISSUED:    7461072  USEFUL:     912464  USELESS:     771375
L1I AVERAGE MISS LATENCY: 28.4606 cycles
L1I

SHEET
L1I-total_access : 15945343
L1I-total_hit : 13914638
L1I-total_miss : 2030705
L1I-load_access : 8822818
L1I-load_hit : 8475947
L1I-load_miss : 346871
L1I-rfo_access : 0
L1I-rfo_hit : 0
L1I-rfo_miss : 0
L1I-prefetch_access : 7122525
L1I-prefetch_hit : 5438691
L1I-prefetch_miss : 1683834
L1I-writeback_access : 0
L1I-writeback_hit : 0
L1I-writeback_miss : 0
L1I-prefetch_requested : 7944513
L1I-prefetch_issued : 7461072
L1I-prefetch_useful : 912464
L1I-prefetch_useless : 771375
L1I-Avg_miss_latency : 28.4606

L2C TOTAL     ACCESS:    3948400  HIT:    2796168  MISS:    1152232
L2C LOAD      ACCESS:     731539  HIT:     378981  MISS:     352558
L2C RFO       ACCESS:      80285  HIT:      33677  MISS:      46608
L2C PREFETCH  ACCESS:    2868476  HIT:    2117033  MISS:     751443
L2C WRITEBACK ACCESS:     268100  HIT:     266477  MISS:       1623
L2C PREFETCH  REQUESTED:    3789246  ISSUED:    3782401  USEFUL:      55067  USELESS:     695855
L2C AVERAGE MISS LATENCY: 48.4552 cycles
L2C

SHEET
L2C-total_access : 3948400
L2C-total_hit : 2796168
L2C-total_miss : 1152232
L2C-load_access : 731539
L2C-load_hit : 378981
L2C-load_miss : 352558
L2C-rfo_access : 80285
L2C-rfo_hit : 33677
L2C-rfo_miss : 46608
L2C-prefetch_access : 2868476
L2C-prefetch_hit : 2117033
L2C-prefetch_miss : 751443
L2C-writeback_access : 268100
L2C-writeback_hit : 266477
L2C-writeback_miss : 1623
L2C-prefetch_requested : 3789246
L2C-prefetch_issued : 3782401
L2C-prefetch_useful : 55067
L2C-prefetch_useless : 695855
L2C-Avg_miss_latency : 48.4552

LLC TOTAL     ACCESS:    2351807  HIT:    2175898  MISS:     175909
LLC LOAD      ACCESS:     351219  HIT:     315325  MISS:      35894
LLC RFO       ACCESS:      46604  HIT:      33553  MISS:      13051
LLC PREFETCH  ACCESS:    1800747  HIT:    1674104  MISS:     126643
LLC WRITEBACK ACCESS:     153237  HIT:     152916  MISS:        321
LLC PREFETCH  REQUESTED:          0  ISSUED:          0  USEFUL:      21798  USELESS:     103447
LLC AVERAGE MISS LATENCY: 169.514 cycles
LLC

SHEET
LLC-total_access : 2351807
LLC-total_hit : 2175898
LLC-total_miss : 175909
LLC-load_access : 351219
LLC-load_hit : 315325
LLC-load_miss : 35894
LLC-rfo_access : 46604
LLC-rfo_hit : 33553
LLC-rfo_miss : 13051
LLC-prefetch_access : 1800747
LLC-prefetch_hit : 1674104
LLC-prefetch_miss : 126643
LLC-writeback_access : 153237
LLC-writeback_hit : 152916
LLC-writeback_miss : 321
LLC-prefetch_requested : 0
LLC-prefetch_issued : 0
LLC-prefetch_useful : 21798
LLC-prefetch_useless : 103447
LLC-Avg_miss_latency : 169.514

Major fault: 0 Minor fault: 6971



Printing Logs
statHeadFound: 489031
statHeadMissing: 937467
statStreamBufferHit: 10893294
statPrefetchEntryFound: 4204207
statCompactorMatch: 10509006
statStreamTrackerLookup: 12319792
statRecord: 1810786
statGetPointer: 1426498
statEnqueuePrefetch: 14812489
statPrefetchQueueIsFull: 63256
StreamBufferHitRate: 0.884211
Regions' size: 7762
next_region_correct: 1453906
next_region_wrong: 349100
next_region_correct_prediction: 0.806379
statStreamBufferLookups: 887025024
statL1iLookups: 118499912
statCompactorLookups: 443512512
morteza: start

SHEET
mana_table_access_counter : 6078231
hobp_table_access_counter : 17216615
sab_access_counter : 15097501
srq_access_counter : 12628696

morteza: end
CPU 0 L1D next line prefetcher final stats

DRAM Statistics
 CHANNEL 0
 RQ ROW_BUFFER_HIT:      32229  ROW_BUFFER_MISS:     143347
 DBUS_CONGESTED:      77399
 WQ ROW_BUFFER_HIT:      12751  ROW_BUFFER_MISS:      48975  FULL:          0

 AVG_CONGESTED_CYCLE: 5

CPU 0 Branch Prediction Accuracy: 97.5565% MPKI: 4.59006 Average ROB Occupancy at Mispredict: 56.5139

Branch types
NOT_BRANCH: 40607199 81.2144%
BRANCH_DIRECT_JUMP: 451601 0.903202%
BRANCH_INDIRECT: 151580 0.30316%
BRANCH_CONDITIONAL: 7041635 14.0833%
BRANCH_DIRECT_CALL: 647827 1.29565%
BRANCH_INDIRECT_CALL: 211373 0.422746%
BRANCH_RETURN: 888439 1.77688%
BRANCH_OTHER: 0 0%

