Initialize SIGNATURE TABLE
ST_SET: 1
ST_WAY: 256
ST_TAG_BIT: 16
ST_TAG_MASK: ffff

Initialize PATTERN TABLE
PT_SET: 512
PT_WAY: 4
SIG_DELTA_BIT: 7
C_SIG_BIT: 4
C_DELTA_BIT: 4

Initialize PREFETCH FILTER
FILTER_SET: 1024
MANA initialize 
tds: 2 tdm: 2
size MANA SINGLE: 15.5 KB
size MANA NULTIPLE: 0 KB
size HOBPT: 0.703125 KB
size SRQ: 0.14502 KB
size SABs: 0.290039 KB
size prefetch queue: 0.453125 KB
total: 17.0913 KB

*** ChampSim Multicore Out-of-Order Simulator ***

Warmup Instructions: 50000000
Simulation Instructions: 50000000
Number of CPUs: 1
LLC sets: 2048
LLC ways: 16
Off-chip DRAM Size: 4096 MB Channels: 1 Width: 64-bit Data Rate: 3200 MT/s

CPU 0 runs /home/mbaradaran/ChampSim/dpc3_traces/server_019.champsimtrace.xz
CPU 0 L1D next line prefetcher
Heartbeat CPU 0 instructions: 10000002 cycles: 3624777 heartbeat IPC: 2.75879 cumulative IPC: 2.75879 (Simulation time: 0 hr 1 min 59 sec) 
Heartbeat CPU 0 instructions: 20000003 cycles: 7250061 heartbeat IPC: 2.7584 cumulative IPC: 2.7586 (Simulation time: 0 hr 3 min 59 sec) 
Heartbeat CPU 0 instructions: 30000002 cycles: 10874555 heartbeat IPC: 2.75901 cumulative IPC: 2.75873 (Simulation time: 0 hr 5 min 59 sec) 
Heartbeat CPU 0 instructions: 40000002 cycles: 14510749 heartbeat IPC: 2.75013 cumulative IPC: 2.75658 (Simulation time: 0 hr 7 min 58 sec) 
Heartbeat CPU 0 instructions: 50000001 cycles: 18135520 heartbeat IPC: 2.75879 cumulative IPC: 2.75702 (Simulation time: 0 hr 10 min 3 sec) 

Warmup complete CPU 0 instructions: 50000001 cycles: 18135520 (Simulation time: 0 hr 10 min 3 sec) 

Heartbeat CPU 0 instructions: 60000000 cycles: 38014128 heartbeat IPC: 0.503053 cumulative IPC: 0.503053 (Simulation time: 0 hr 12 min 44 sec) 
Heartbeat CPU 0 instructions: 70000002 cycles: 61765395 heartbeat IPC: 0.42103 cumulative IPC: 0.458402 (Simulation time: 0 hr 15 min 31 sec) 
Heartbeat CPU 0 instructions: 80000001 cycles: 82436483 heartbeat IPC: 0.483767 cumulative IPC: 0.466556 (Simulation time: 0 hr 18 min 16 sec) 
Heartbeat CPU 0 instructions: 90000002 cycles: 100175873 heartbeat IPC: 0.563717 cumulative IPC: 0.487565 (Simulation time: 0 hr 21 min 5 sec) 
Heartbeat CPU 0 instructions: 100000002 cycles: 117880733 heartbeat IPC: 0.564817 cumulative IPC: 0.501277 (Simulation time: 0 hr 23 min 40 sec) 
Finished CPU 0 instructions: 50000001 cycles: 99745213 cumulative IPC: 0.501277 (Simulation time: 0 hr 23 min 40 sec) 

ChampSim completed all CPUs

Region of Interest Statistics

CPU 0 cumulative IPC: 0.501277 instructions: 50000001 cycles: 99745213

SHEET
IPC : 0.501277

L1D TOTAL     ACCESS:   18341220  HIT:   16117558  MISS:    2223662
L1D LOAD      ACCESS:    6991331  HIT:    6235130  MISS:     756201
L1D RFO       ACCESS:    5520312  HIT:    4618350  MISS:     901962
L1D PREFETCH  ACCESS:    5829577  HIT:    5264078  MISS:     565499
L1D WRITEBACK ACCESS:          0  HIT:          0  MISS:          0
L1D PREFETCH  REQUESTED:    7028644  ISSUED:    6842843  USEFUL:     196244  USELESS:     369164
L1D AVERAGE MISS LATENCY: 184.923 cycles
L1D

SHEET
L1D-total_access : 18341220
L1D-total_hit : 16117558
L1D-total_miss : 2223662
L1D-load_access : 6991331
L1D-load_hit : 6235130
L1D-load_miss : 756201
L1D-rfo_access : 5520312
L1D-rfo_hit : 4618350
L1D-rfo_miss : 901962
L1D-prefetch_access : 5829577
L1D-prefetch_hit : 5264078
L1D-prefetch_miss : 565499
L1D-writeback_access : 0
L1D-writeback_hit : 0
L1D-writeback_miss : 0
L1D-prefetch_requested : 7028644
L1D-prefetch_issued : 6842843
L1D-prefetch_useful : 196244
L1D-prefetch_useless : 369164
L1D-Avg_miss_latency : 184.923

L1I TOTAL     ACCESS:   16178945  HIT:   13943179  MISS:    2235766
L1I LOAD      ACCESS:    9801480  HIT:    9580456  MISS:     221024
L1I RFO       ACCESS:          0  HIT:          0  MISS:          0
L1I PREFETCH  ACCESS:    6377465  HIT:    4362723  MISS:    2014742
L1I WRITEBACK ACCESS:          0  HIT:          0  MISS:          0
L1I PREFETCH  REQUESTED:    6691115  ISSUED:    6630392  USEFUL:    1852744  USELESS:     161942
L1I AVERAGE MISS LATENCY: 18.5171 cycles
L1I

SHEET
L1I-total_access : 16178945
L1I-total_hit : 13943179
L1I-total_miss : 2235766
L1I-load_access : 9801480
L1I-load_hit : 9580456
L1I-load_miss : 221024
L1I-rfo_access : 0
L1I-rfo_hit : 0
L1I-rfo_miss : 0
L1I-prefetch_access : 6377465
L1I-prefetch_hit : 4362723
L1I-prefetch_miss : 2014742
L1I-writeback_access : 0
L1I-writeback_hit : 0
L1I-writeback_miss : 0
L1I-prefetch_requested : 6691115
L1I-prefetch_issued : 6630392
L1I-prefetch_useful : 1852744
L1I-prefetch_useless : 161942
L1I-Avg_miss_latency : 18.5171

L2C TOTAL     ACCESS:    6522469  HIT:    4632522  MISS:    1889947
L2C LOAD      ACCESS:     707190  HIT:     366463  MISS:     340727
L2C RFO       ACCESS:     901540  HIT:      18352  MISS:     883188
L2C PREFETCH  ACCESS:    3739084  HIT:    3075257  MISS:     663827
L2C WRITEBACK ACCESS:    1174655  HIT:    1172450  MISS:       2205
L2C PREFETCH  REQUESTED:    3820811  ISSUED:    3817493  USEFUL:      25981  USELESS:     636438
L2C AVERAGE MISS LATENCY: 221.656 cycles
L2C

SHEET
L2C-total_access : 6522469
L2C-total_hit : 4632522
L2C-total_miss : 1889947
L2C-load_access : 707190
L2C-load_hit : 366463
L2C-load_miss : 340727
L2C-rfo_access : 901540
L2C-rfo_hit : 18352
L2C-rfo_miss : 883188
L2C-prefetch_access : 3739084
L2C-prefetch_hit : 3075257
L2C-prefetch_miss : 663827
L2C-writeback_access : 1174655
L2C-writeback_hit : 1172450
L2C-writeback_miss : 2205
L2C-prefetch_requested : 3820811
L2C-prefetch_issued : 3817493
L2C-prefetch_useful : 25981
L2C-prefetch_useless : 636438
L2C-Avg_miss_latency : 221.656

LLC TOTAL     ACCESS:    4123562  HIT:    2532442  MISS:    1591120
LLC LOAD      ACCESS:     340605  HIT:     174305  MISS:     166300
LLC RFO       ACCESS:     883185  HIT:     115054  MISS:     768131
LLC PREFETCH  ACCESS:    1789412  HIT:    1134869  MISS:     654543
LLC WRITEBACK ACCESS:    1110360  HIT:    1108214  MISS:       2146
LLC PREFETCH  REQUESTED:          0  ISSUED:          0  USEFUL:      52029  USELESS:     601298
LLC AVERAGE MISS LATENCY: 272.405 cycles
LLC

SHEET
LLC-total_access : 4123562
LLC-total_hit : 2532442
LLC-total_miss : 1591120
LLC-load_access : 340605
LLC-load_hit : 174305
LLC-load_miss : 166300
LLC-rfo_access : 883185
LLC-rfo_hit : 115054
LLC-rfo_miss : 768131
LLC-prefetch_access : 1789412
LLC-prefetch_hit : 1134869
LLC-prefetch_miss : 654543
LLC-writeback_access : 1110360
LLC-writeback_hit : 1108214
LLC-writeback_miss : 2146
LLC-prefetch_requested : 0
LLC-prefetch_issued : 0
LLC-prefetch_useful : 52029
LLC-prefetch_useless : 601298
LLC-Avg_miss_latency : 272.405

Major fault: 0 Minor fault: 25691



Printing Logs
statHeadFound: 470734
statHeadMissing: 1163432
statStreamBufferHit: 11610778
statPrefetchEntryFound: 4533943
statCompactorMatch: 11002468
statStreamTrackerLookup: 13244944
statRecord: 2242476
statGetPointer: 1634166
statEnqueuePrefetch: 14203600
statPrefetchQueueIsFull: 509
StreamBufferHitRate: 0.87662
Regions' size: 1361
next_region_correct: 1899779
next_region_wrong: 341318
next_region_correct_prediction: 0.8477
statStreamBufferLookups: 953635968
statL1iLookups: 113628800
statCompactorLookups: 476817984
morteza: start

SHEET
mana_table_access_counter : 6776910
hobp_table_access_counter : 20040981
sab_access_counter : 16144721
srq_access_counter : 14424169

morteza: end
CPU 0 L1D next line prefetcher final stats

DRAM Statistics
 CHANNEL 0
 RQ ROW_BUFFER_HIT:     393249  ROW_BUFFER_MISS:    1195470
 DBUS_CONGESTED:    1566577
 WQ ROW_BUFFER_HIT:     272168  ROW_BUFFER_MISS:     663064  FULL:          0

 AVG_CONGESTED_CYCLE: 6

CPU 0 Branch Prediction Accuracy: 99.2186% MPKI: 1.32192 Average ROB Occupancy at Mispredict: 178.146

Branch types
NOT_BRANCH: 41540785 83.0816%
BRANCH_DIRECT_JUMP: 462384 0.924768%
BRANCH_INDIRECT: 45460 0.09092%
BRANCH_CONDITIONAL: 6209281 12.4186%
BRANCH_DIRECT_CALL: 666241 1.33248%
BRANCH_INDIRECT_CALL: 204728 0.409456%
BRANCH_RETURN: 870978 1.74196%
BRANCH_OTHER: 0 0%

