Initialize SIGNATURE TABLE
ST_SET: 1
ST_WAY: 256
ST_TAG_BIT: 16
ST_TAG_MASK: ffff

Initialize PATTERN TABLE
PT_SET: 512
PT_WAY: 4
SIG_DELTA_BIT: 7
C_SIG_BIT: 4
C_DELTA_BIT: 4

Initialize PREFETCH FILTER
FILTER_SET: 1024
MANA initialize 
tds: 2 tdm: 2
size MANA SINGLE: 15.5 KB
size MANA NULTIPLE: 0 KB
size HOBPT: 0.703125 KB
size SRQ: 0.14502 KB
size SABs: 0.290039 KB
size prefetch queue: 0.453125 KB
total: 17.0913 KB

*** ChampSim Multicore Out-of-Order Simulator ***

Warmup Instructions: 50000000
Simulation Instructions: 50000000
Number of CPUs: 1
LLC sets: 2048
LLC ways: 16
Off-chip DRAM Size: 4096 MB Channels: 1 Width: 64-bit Data Rate: 3200 MT/s

CPU 0 runs /home/mbaradaran/ChampSim/dpc3_traces/server_016.champsimtrace.xz
CPU 0 L1D next line prefetcher
Heartbeat CPU 0 instructions: 10000000 cycles: 3504223 heartbeat IPC: 2.8537 cumulative IPC: 2.8537 (Simulation time: 0 hr 1 min 55 sec) 
Heartbeat CPU 0 instructions: 20000000 cycles: 7008211 heartbeat IPC: 2.85389 cumulative IPC: 2.8538 (Simulation time: 0 hr 3 min 49 sec) 
Heartbeat CPU 0 instructions: 30000001 cycles: 10508620 heartbeat IPC: 2.85681 cumulative IPC: 2.8548 (Simulation time: 0 hr 5 min 44 sec) 
Heartbeat CPU 0 instructions: 40000000 cycles: 13808217 heartbeat IPC: 3.03067 cumulative IPC: 2.89683 (Simulation time: 0 hr 6 min 42 sec) 
Heartbeat CPU 0 instructions: 50000002 cycles: 17043682 heartbeat IPC: 3.09075 cumulative IPC: 2.93364 (Simulation time: 0 hr 7 min 27 sec) 

Warmup complete CPU 0 instructions: 50000002 cycles: 17043682 (Simulation time: 0 hr 7 min 27 sec) 

Heartbeat CPU 0 instructions: 60000000 cycles: 25050416 heartbeat IPC: 1.24895 cumulative IPC: 1.24895 (Simulation time: 0 hr 8 min 21 sec) 
Heartbeat CPU 0 instructions: 70000001 cycles: 32157582 heartbeat IPC: 1.40703 cumulative IPC: 1.32329 (Simulation time: 0 hr 10 min 15 sec) 
Heartbeat CPU 0 instructions: 80000000 cycles: 39394787 heartbeat IPC: 1.38175 cumulative IPC: 1.34222 (Simulation time: 0 hr 11 min 59 sec) 
Heartbeat CPU 0 instructions: 90000000 cycles: 46401067 heartbeat IPC: 1.42729 cumulative IPC: 1.36252 (Simulation time: 0 hr 13 min 49 sec) 
Heartbeat CPU 0 instructions: 100000000 cycles: 53555876 heartbeat IPC: 1.39766 cumulative IPC: 1.36941 (Simulation time: 0 hr 15 min 37 sec) 
Finished CPU 0 instructions: 50000001 cycles: 36512195 cumulative IPC: 1.36941 (Simulation time: 0 hr 15 min 37 sec) 

ChampSim completed all CPUs

Region of Interest Statistics

CPU 0 cumulative IPC: 1.36941 instructions: 50000001 cycles: 36512195

SHEET
IPC : 1.36941

L1D TOTAL     ACCESS:   18310556  HIT:   17042994  MISS:    1267562
L1D LOAD      ACCESS:    6692819  HIT:    6120808  MISS:     572011
L1D RFO       ACCESS:    5202712  HIT:    4980638  MISS:     222074
L1D PREFETCH  ACCESS:    6415025  HIT:    5941548  MISS:     473477
L1D WRITEBACK ACCESS:          0  HIT:          0  MISS:          0
L1D PREFETCH  REQUESTED:    6735008  ISSUED:    6633788  USEFUL:     114333  USELESS:     359162
L1D AVERAGE MISS LATENCY: 23.0034 cycles
L1D

SHEET
L1D-total_access : 18310556
L1D-total_hit : 17042994
L1D-total_miss : 1267562
L1D-load_access : 6692819
L1D-load_hit : 6120808
L1D-load_miss : 572011
L1D-rfo_access : 5202712
L1D-rfo_hit : 4980638
L1D-rfo_miss : 222074
L1D-prefetch_access : 6415025
L1D-prefetch_hit : 5941548
L1D-prefetch_miss : 473477
L1D-writeback_access : 0
L1D-writeback_hit : 0
L1D-writeback_miss : 0
L1D-prefetch_requested : 6735008
L1D-prefetch_issued : 6633788
L1D-prefetch_useful : 114333
L1D-prefetch_useless : 359162
L1D-Avg_miss_latency : 23.0034

L1I TOTAL     ACCESS:   17516326  HIT:   14265482  MISS:    3250844
L1I LOAD      ACCESS:    9688253  HIT:    9089228  MISS:     599025
L1I RFO       ACCESS:          0  HIT:          0  MISS:          0
L1I PREFETCH  ACCESS:    7828073  HIT:    5176254  MISS:    2651819
L1I WRITEBACK ACCESS:          0  HIT:          0  MISS:          0
L1I PREFETCH  REQUESTED:    8658789  ISSUED:    8461765  USEFUL:    1573400  USELESS:    1078418
L1I AVERAGE MISS LATENCY: 16.5708 cycles
L1I

SHEET
L1I-total_access : 17516326
L1I-total_hit : 14265482
L1I-total_miss : 3250844
L1I-load_access : 9688253
L1I-load_hit : 9089228
L1I-load_miss : 599025
L1I-rfo_access : 0
L1I-rfo_hit : 0
L1I-rfo_miss : 0
L1I-prefetch_access : 7828073
L1I-prefetch_hit : 5176254
L1I-prefetch_miss : 2651819
L1I-writeback_access : 0
L1I-writeback_hit : 0
L1I-writeback_miss : 0
L1I-prefetch_requested : 8658789
L1I-prefetch_issued : 8461765
L1I-prefetch_useful : 1573400
L1I-prefetch_useless : 1078418
L1I-Avg_miss_latency : 16.5708

L2C TOTAL     ACCESS:    6115083  HIT:    5617751  MISS:     497332
L2C LOAD      ACCESS:     983447  HIT:     845181  MISS:     138266
L2C RFO       ACCESS:     220511  HIT:     159773  MISS:      60738
L2C PREFETCH  ACCESS:    4482914  HIT:    4186348  MISS:     296566
L2C WRITEBACK ACCESS:     428211  HIT:     426449  MISS:       1762
L2C PREFETCH  REQUESTED:    5267075  ISSUED:    5254692  USEFUL:      24379  USELESS:     271700
L2C AVERAGE MISS LATENCY: 42.0536 cycles
L2C

SHEET
L2C-total_access : 6115083
L2C-total_hit : 5617751
L2C-total_miss : 497332
L2C-load_access : 983447
L2C-load_hit : 845181
L2C-load_miss : 138266
L2C-rfo_access : 220511
L2C-rfo_hit : 159773
L2C-rfo_miss : 60738
L2C-prefetch_access : 4482914
L2C-prefetch_hit : 4186348
L2C-prefetch_miss : 296566
L2C-writeback_access : 428211
L2C-writeback_hit : 426449
L2C-writeback_miss : 1762
L2C-prefetch_requested : 5267075
L2C-prefetch_issued : 5254692
L2C-prefetch_useful : 24379
L2C-prefetch_useless : 271700
L2C-Avg_miss_latency : 42.0536

LLC TOTAL     ACCESS:    1963308  HIT:    1926328  MISS:      36980
LLC LOAD      ACCESS:     138151  HIT:     133772  MISS:       4379
LLC RFO       ACCESS:      60738  HIT:      47322  MISS:      13416
LLC PREFETCH  ACCESS:    1665888  HIT:    1646858  MISS:      19030
LLC WRITEBACK ACCESS:      98531  HIT:      98376  MISS:        155
LLC PREFETCH  REQUESTED:          0  ISSUED:          0  USEFUL:       1934  USELESS:      16478
LLC AVERAGE MISS LATENCY: 177.027 cycles
LLC

SHEET
LLC-total_access : 1963308
LLC-total_hit : 1926328
LLC-total_miss : 36980
LLC-load_access : 138151
LLC-load_hit : 133772
LLC-load_miss : 4379
LLC-rfo_access : 60738
LLC-rfo_hit : 47322
LLC-rfo_miss : 13416
LLC-prefetch_access : 1665888
LLC-prefetch_hit : 1646858
LLC-prefetch_miss : 19030
LLC-writeback_access : 98531
LLC-writeback_hit : 98376
LLC-writeback_miss : 155
LLC-prefetch_requested : 0
LLC-prefetch_issued : 0
LLC-prefetch_useful : 1934
LLC-prefetch_useless : 16478
LLC-Avg_miss_latency : 177.027

Major fault: 0 Minor fault: 2365



Printing Logs
statHeadFound: 711328
statHeadMissing: 1048246
statStreamBufferHit: 13004342
statPrefetchEntryFound: 4986897
statCompactorMatch: 13034941
statStreamTrackerLookup: 14763916
statRecord: 1728975
statGetPointer: 1759574
statEnqueuePrefetch: 15039491
statPrefetchQueueIsFull: 30681
StreamBufferHitRate: 0.880819
Regions' size: 2150
next_region_correct: 1168281
next_region_wrong: 558526
next_region_correct_prediction: 0.676556
statStreamBufferLookups: 1063001952
statL1iLookups: 120315928
statCompactorLookups: 531500976
morteza: start

SHEET
mana_table_access_counter : 6746535
hobp_table_access_counter : 18971774
sab_access_counter : 17991239
srq_access_counter : 13309748

morteza: end
CPU 0 L1D next line prefetcher final stats

DRAM Statistics
 CHANNEL 0
 RQ ROW_BUFFER_HIT:      11587  ROW_BUFFER_MISS:      25235
 DBUS_CONGESTED:      24138
 WQ ROW_BUFFER_HIT:       1615  ROW_BUFFER_MISS:      14770  FULL:          0

 AVG_CONGESTED_CYCLE: 6

CPU 0 Branch Prediction Accuracy: 99.7225% MPKI: 0.50376 Average ROB Occupancy at Mispredict: 113.379

Branch types
NOT_BRANCH: 40923882 81.8478%
BRANCH_DIRECT_JUMP: 487045 0.97409%
BRANCH_INDIRECT: 169158 0.338316%
BRANCH_CONDITIONAL: 6640823 13.2816%
BRANCH_DIRECT_CALL: 755586 1.51117%
BRANCH_INDIRECT_CALL: 133962 0.267924%
BRANCH_RETURN: 889566 1.77913%
BRANCH_OTHER: 0 0%

