Initialize SIGNATURE TABLE
ST_SET: 1
ST_WAY: 256
ST_TAG_BIT: 16
ST_TAG_MASK: ffff

Initialize PATTERN TABLE
PT_SET: 512
PT_WAY: 4
SIG_DELTA_BIT: 7
C_SIG_BIT: 4
C_DELTA_BIT: 4

Initialize PREFETCH FILTER
FILTER_SET: 1024

*** ChampSim Multicore Out-of-Order Simulator ***

Warmup Instructions: 50000000
Simulation Instructions: 50000000
Number of CPUs: 1
LLC sets: 2048
LLC ways: 16
Off-chip DRAM Size: 4096 MB Channels: 1 Width: 64-bit Data Rate: 3200 MT/s

CPU 0 runs /home/mbaradaran/ChampSim/dpc3_traces/server_011.champsimtrace.xz
CPU 0 L1D next line prefetcher
Heartbeat CPU 0 instructions: 10000002 cycles: 3200726 heartbeat IPC: 3.12429 cumulative IPC: 3.12429 (Simulation time: 0 hr 1 min 18 sec) 
Heartbeat CPU 0 instructions: 20000001 cycles: 6407716 heartbeat IPC: 3.11819 cumulative IPC: 3.12124 (Simulation time: 0 hr 2 min 34 sec) 
Heartbeat CPU 0 instructions: 30000001 cycles: 9658215 heartbeat IPC: 3.07645 cumulative IPC: 3.10616 (Simulation time: 0 hr 3 min 54 sec) 
Heartbeat CPU 0 instructions: 40000003 cycles: 12855008 heartbeat IPC: 3.12814 cumulative IPC: 3.11163 (Simulation time: 0 hr 5 min 6 sec) 
Heartbeat CPU 0 instructions: 50000000 cycles: 16059691 heartbeat IPC: 3.12043 cumulative IPC: 3.11338 (Simulation time: 0 hr 6 min 20 sec) 

Warmup complete CPU 0 instructions: 50000004 cycles: 16059692 (Simulation time: 0 hr 6 min 20 sec) 

Heartbeat CPU 0 instructions: 60000002 cycles: 23710973 heartbeat IPC: 1.30697 cumulative IPC: 1.30697 (Simulation time: 0 hr 7 min 31 sec) 
Heartbeat CPU 0 instructions: 70000001 cycles: 31775418 heartbeat IPC: 1.24001 cumulative IPC: 1.27261 (Simulation time: 0 hr 8 min 38 sec) 
Heartbeat CPU 0 instructions: 80000003 cycles: 41080731 heartbeat IPC: 1.07466 cumulative IPC: 1.19899 (Simulation time: 0 hr 9 min 37 sec) 
Heartbeat CPU 0 instructions: 90000001 cycles: 48868814 heartbeat IPC: 1.28401 cumulative IPC: 1.21917 (Simulation time: 0 hr 10 min 40 sec) 
Heartbeat CPU 0 instructions: 100000000 cycles: 56336219 heartbeat IPC: 1.33915 cumulative IPC: 1.24142 (Simulation time: 0 hr 11 min 48 sec) 
Finished CPU 0 instructions: 50000003 cycles: 40276539 cumulative IPC: 1.24142 (Simulation time: 0 hr 11 min 48 sec) 

ChampSim completed all CPUs

Region of Interest Statistics

CPU 0 cumulative IPC: 1.24142 instructions: 50000003 cycles: 40276539

SHEET
IPC : 1.24142

L1D TOTAL     ACCESS:   18208733  HIT:   17177602  MISS:    1031131
L1D LOAD      ACCESS:    6804928  HIT:    6324316  MISS:     480612
L1D RFO       ACCESS:    4835475  HIT:    4753528  MISS:      81947
L1D PREFETCH  ACCESS:    6568330  HIT:    6099758  MISS:     468572
L1D WRITEBACK ACCESS:          0  HIT:          0  MISS:          0
L1D PREFETCH  REQUESTED:    6841699  ISSUED:    6748904  USEFUL:     138315  USELESS:     330252
L1D AVERAGE MISS LATENCY: 39.9662 cycles
L1D

SHEET
L1D-total_access : 18208733
L1D-total_hit : 17177602
L1D-total_miss : 1031131
L1D-load_access : 6804928
L1D-load_hit : 6324316
L1D-load_miss : 480612
L1D-rfo_access : 4835475
L1D-rfo_hit : 4753528
L1D-rfo_miss : 81947
L1D-prefetch_access : 6568330
L1D-prefetch_hit : 6099758
L1D-prefetch_miss : 468572
L1D-writeback_access : 0
L1D-writeback_hit : 0
L1D-writeback_miss : 0
L1D-prefetch_requested : 6841699
L1D-prefetch_issued : 6748904
L1D-prefetch_useful : 138315
L1D-prefetch_useless : 330252
L1D-Avg_miss_latency : 39.9662

L1I TOTAL     ACCESS:   14969898  HIT:   13384802  MISS:    1585096
L1I LOAD      ACCESS:    8859318  HIT:    8714322  MISS:     144996
L1I RFO       ACCESS:          0  HIT:          0  MISS:          0
L1I PREFETCH  ACCESS:    6110580  HIT:    4670480  MISS:    1440100
L1I WRITEBACK ACCESS:          0  HIT:          0  MISS:          0
L1I PREFETCH  REQUESTED:    6231911  ISSUED:    6207980  USEFUL:    1104669  USELESS:     335448
L1I AVERAGE MISS LATENCY: 31.6442 cycles
L1I

SHEET
L1I-total_access : 14969898
L1I-total_hit : 13384802
L1I-total_miss : 1585096
L1I-load_access : 8859318
L1I-load_hit : 8714322
L1I-load_miss : 144996
L1I-rfo_access : 0
L1I-rfo_hit : 0
L1I-rfo_miss : 0
L1I-prefetch_access : 6110580
L1I-prefetch_hit : 4670480
L1I-prefetch_miss : 1440100
L1I-writeback_access : 0
L1I-writeback_hit : 0
L1I-writeback_miss : 0
L1I-prefetch_requested : 6231911
L1I-prefetch_issued : 6207980
L1I-prefetch_useful : 1104669
L1I-prefetch_useless : 335448
L1I-Avg_miss_latency : 31.6442

L2C TOTAL     ACCESS:    3406646  HIT:    2294591  MISS:    1112055
L2C LOAD      ACCESS:     550757  HIT:     281022  MISS:     269735
L2C RFO       ACCESS:      80194  HIT:      34383  MISS:      45811
L2C PREFETCH  ACCESS:    2507591  HIT:    1712181  MISS:     795410
L2C WRITEBACK ACCESS:     268104  HIT:     267005  MISS:       1099
L2C PREFETCH  REQUESTED:    3196036  ISSUED:    3192896  USEFUL:      28709  USELESS:     766610
L2C AVERAGE MISS LATENCY: 49.1832 cycles
L2C

SHEET
L2C-total_access : 3406646
L2C-total_hit : 2294591
L2C-total_miss : 1112055
L2C-load_access : 550757
L2C-load_hit : 281022
L2C-load_miss : 269735
L2C-rfo_access : 80194
L2C-rfo_hit : 34383
L2C-rfo_miss : 45811
L2C-prefetch_access : 2507591
L2C-prefetch_hit : 1712181
L2C-prefetch_miss : 795410
L2C-writeback_access : 268104
L2C-writeback_hit : 267005
L2C-writeback_miss : 1099
L2C-prefetch_requested : 3196036
L2C-prefetch_issued : 3192896
L2C-prefetch_useful : 28709
L2C-prefetch_useless : 766610
L2C-Avg_miss_latency : 49.1832

LLC TOTAL     ACCESS:    2181117  HIT:    2003155  MISS:     177962
LLC LOAD      ACCESS:     268609  HIT:     231787  MISS:      36822
LLC RFO       ACCESS:      45805  HIT:      32689  MISS:      13116
LLC PREFETCH  ACCESS:    1715428  HIT:    1587800  MISS:     127628
LLC WRITEBACK ACCESS:     151275  HIT:     150879  MISS:        396
LLC PREFETCH  REQUESTED:          0  ISSUED:          0  USEFUL:      24004  USELESS:     102925
LLC AVERAGE MISS LATENCY: 167.064 cycles
LLC

SHEET
LLC-total_access : 2181117
LLC-total_hit : 2003155
LLC-total_miss : 177962
LLC-load_access : 268609
LLC-load_hit : 231787
LLC-load_miss : 36822
LLC-rfo_access : 45805
LLC-rfo_hit : 32689
LLC-rfo_miss : 13116
LLC-prefetch_access : 1715428
LLC-prefetch_hit : 1587800
LLC-prefetch_miss : 127628
LLC-writeback_access : 151275
LLC-writeback_hit : 150879
LLC-writeback_miss : 396
LLC-prefetch_requested : 0
LLC-prefetch_issued : 0
LLC-prefetch_useful : 24004
LLC-prefetch_useless : 102925
LLC-Avg_miss_latency : 167.064

Major fault: 0 Minor fault: 6971



Printing Logs
morteza: start

SHEET
history_access_cntr : 5393466
index_access_cntr : 2143538
sab_access_cntr : 15015003
compactor_access_cntr : 14200306

morteza: end
CPU 0 L1D next line prefetcher final stats

DRAM Statistics
 CHANNEL 0
 RQ ROW_BUFFER_HIT:      32110  ROW_BUFFER_MISS:     145440
 DBUS_CONGESTED:      77437
 WQ ROW_BUFFER_HIT:      13591  ROW_BUFFER_MISS:      48615  FULL:          0

 AVG_CONGESTED_CYCLE: 5

CPU 0 Branch Prediction Accuracy: 97.5565% MPKI: 4.59006 Average ROB Occupancy at Mispredict: 60.6559

Branch types
NOT_BRANCH: 40607199 81.2144%
BRANCH_DIRECT_JUMP: 451601 0.903202%
BRANCH_INDIRECT: 151580 0.30316%
BRANCH_CONDITIONAL: 7041635 14.0833%
BRANCH_DIRECT_CALL: 647827 1.29565%
BRANCH_INDIRECT_CALL: 211373 0.422746%
BRANCH_RETURN: 888439 1.77688%
BRANCH_OTHER: 0 0%

