Initialize SIGNATURE TABLE
ST_SET: 1
ST_WAY: 256
ST_TAG_BIT: 16
ST_TAG_MASK: ffff

Initialize PATTERN TABLE
PT_SET: 512
PT_WAY: 4
SIG_DELTA_BIT: 7
C_SIG_BIT: 4
C_DELTA_BIT: 4

Initialize PREFETCH FILTER
FILTER_SET: 1024

*** ChampSim Multicore Out-of-Order Simulator ***

Warmup Instructions: 50000000
Simulation Instructions: 50000000
Number of CPUs: 1
LLC sets: 2048
LLC ways: 16
Off-chip DRAM Size: 4096 MB Channels: 1 Width: 64-bit Data Rate: 3200 MT/s

CPU 0 runs /home/mbaradaran/ChampSim/dpc3_traces/server_031.champsimtrace.xz
CPU 0 L1D next line prefetcher
Heartbeat CPU 0 instructions: 10000003 cycles: 3517549 heartbeat IPC: 2.84289 cumulative IPC: 2.84289 (Simulation time: 0 hr 1 min 31 sec) 
Heartbeat CPU 0 instructions: 20000002 cycles: 7033921 heartbeat IPC: 2.84384 cumulative IPC: 2.84336 (Simulation time: 0 hr 2 min 55 sec) 
Heartbeat CPU 0 instructions: 30000002 cycles: 10550852 heartbeat IPC: 2.84339 cumulative IPC: 2.84337 (Simulation time: 0 hr 4 min 20 sec) 
Heartbeat CPU 0 instructions: 40000003 cycles: 14063208 heartbeat IPC: 2.84709 cumulative IPC: 2.8443 (Simulation time: 0 hr 5 min 50 sec) 
Heartbeat CPU 0 instructions: 50000001 cycles: 17577700 heartbeat IPC: 2.84536 cumulative IPC: 2.84451 (Simulation time: 0 hr 7 min 24 sec) 

Warmup complete CPU 0 instructions: 50000001 cycles: 17577700 (Simulation time: 0 hr 7 min 24 sec) 

Heartbeat CPU 0 instructions: 60000001 cycles: 25076467 heartbeat IPC: 1.33355 cumulative IPC: 1.33355 (Simulation time: 0 hr 8 min 55 sec) 
Heartbeat CPU 0 instructions: 70000002 cycles: 32669187 heartbeat IPC: 1.31705 cumulative IPC: 1.32525 (Simulation time: 0 hr 10 min 26 sec) 
*** Reached end of trace for Core: 0 Repeating trace: /home/mbaradaran/ChampSim/dpc3_traces/server_031.champsimtrace.xz
Heartbeat CPU 0 instructions: 80000000 cycles: 40070928 heartbeat IPC: 1.35103 cumulative IPC: 1.33373 (Simulation time: 0 hr 11 min 56 sec) 
Heartbeat CPU 0 instructions: 90000003 cycles: 47541992 heartbeat IPC: 1.3385 cumulative IPC: 1.33492 (Simulation time: 0 hr 13 min 29 sec) 
Heartbeat CPU 0 instructions: 100000000 cycles: 54971137 heartbeat IPC: 1.34605 cumulative IPC: 1.33713 (Simulation time: 0 hr 14 min 54 sec) 
Finished CPU 0 instructions: 50000000 cycles: 37393439 cumulative IPC: 1.33713 (Simulation time: 0 hr 14 min 54 sec) 

ChampSim completed all CPUs

Region of Interest Statistics

CPU 0 cumulative IPC: 1.33713 instructions: 50000000 cycles: 37393439

SHEET
IPC : 1.33713

L1D TOTAL     ACCESS:   19549683  HIT:   17645179  MISS:    1904504
L1D LOAD      ACCESS:    6781931  HIT:    5909256  MISS:     872675
L1D RFO       ACCESS:    6326365  HIT:    6034982  MISS:     291383
L1D PREFETCH  ACCESS:    6441387  HIT:    5700941  MISS:     740446
L1D WRITEBACK ACCESS:          0  HIT:          0  MISS:          0
L1D PREFETCH  REQUESTED:    6841891  ISSUED:    6730339  USEFUL:     174526  USELESS:     565924
L1D AVERAGE MISS LATENCY: 22.2347 cycles
L1D

SHEET
L1D-total_access : 19549683
L1D-total_hit : 17645179
L1D-total_miss : 1904504
L1D-load_access : 6781931
L1D-load_hit : 5909256
L1D-load_miss : 872675
L1D-rfo_access : 6326365
L1D-rfo_hit : 6034982
L1D-rfo_miss : 291383
L1D-prefetch_access : 6441387
L1D-prefetch_hit : 5700941
L1D-prefetch_miss : 740446
L1D-writeback_access : 0
L1D-writeback_hit : 0
L1D-writeback_miss : 0
L1D-prefetch_requested : 6841891
L1D-prefetch_issued : 6730339
L1D-prefetch_useful : 174526
L1D-prefetch_useless : 565924
L1D-Avg_miss_latency : 22.2347

L1I TOTAL     ACCESS:   16190859  HIT:   12804445  MISS:    3386414
L1I LOAD      ACCESS:    9658579  HIT:    9513338  MISS:     145241
L1I RFO       ACCESS:          0  HIT:          0  MISS:          0
L1I PREFETCH  ACCESS:    6532280  HIT:    3291107  MISS:    3241173
L1I WRITEBACK ACCESS:          0  HIT:          0  MISS:          0
L1I PREFETCH  REQUESTED:    6674549  ISSUED:    6670419  USEFUL:    2895510  USELESS:     345698
L1I AVERAGE MISS LATENCY: 16.7838 cycles
L1I

SHEET
L1I-total_access : 16190859
L1I-total_hit : 12804445
L1I-total_miss : 3386414
L1I-load_access : 9658579
L1I-load_hit : 9513338
L1I-load_miss : 145241
L1I-rfo_access : 0
L1I-rfo_hit : 0
L1I-rfo_miss : 0
L1I-prefetch_access : 6532280
L1I-prefetch_hit : 3291107
L1I-prefetch_miss : 3241173
L1I-writeback_access : 0
L1I-writeback_hit : 0
L1I-writeback_miss : 0
L1I-prefetch_requested : 6674549
L1I-prefetch_issued : 6670419
L1I-prefetch_useful : 2895510
L1I-prefetch_useless : 345698
L1I-Avg_miss_latency : 16.7838

L2C TOTAL     ACCESS:    7285849  HIT:    6712362  MISS:     573487
L2C LOAD      ACCESS:     861926  HIT:     736024  MISS:     125902
L2C RFO       ACCESS:     289604  HIT:     249553  MISS:      40051
L2C PREFETCH  ACCESS:    5517398  HIT:    5110580  MISS:     406818
L2C WRITEBACK ACCESS:     616921  HIT:     616205  MISS:        716
L2C PREFETCH  REQUESTED:    6342413  ISSUED:    6332218  USEFUL:       7419  USELESS:     398721
L2C AVERAGE MISS LATENCY: 45.9326 cycles
L2C

SHEET
L2C-total_access : 7285849
L2C-total_hit : 6712362
L2C-total_miss : 573487
L2C-load_access : 861926
L2C-load_hit : 736024
L2C-load_miss : 125902
L2C-rfo_access : 289604
L2C-rfo_hit : 249553
L2C-rfo_miss : 40051
L2C-prefetch_access : 5517398
L2C-prefetch_hit : 5110580
L2C-prefetch_miss : 406818
L2C-writeback_access : 616921
L2C-writeback_hit : 616205
L2C-writeback_miss : 716
L2C-prefetch_requested : 6342413
L2C-prefetch_issued : 6332218
L2C-prefetch_useful : 7419
L2C-prefetch_useless : 398721
L2C-Avg_miss_latency : 45.9326

LLC TOTAL     ACCESS:    2260477  HIT:    2177446  MISS:      83031
LLC LOAD      ACCESS:     125870  HIT:     106871  MISS:      18999
LLC RFO       ACCESS:      40051  HIT:      35791  MISS:       4260
LLC PREFETCH  ACCESS:    2020538  HIT:    1961356  MISS:      59182
LLC WRITEBACK ACCESS:      74018  HIT:      73428  MISS:        590
LLC PREFETCH  REQUESTED:          0  ISSUED:          0  USEFUL:       2924  USELESS:      56117
LLC AVERAGE MISS LATENCY: 159.043 cycles
LLC

SHEET
LLC-total_access : 2260477
LLC-total_hit : 2177446
LLC-total_miss : 83031
LLC-load_access : 125870
LLC-load_hit : 106871
LLC-load_miss : 18999
LLC-rfo_access : 40051
LLC-rfo_hit : 35791
LLC-rfo_miss : 4260
LLC-prefetch_access : 2020538
LLC-prefetch_hit : 1961356
LLC-prefetch_miss : 59182
LLC-writeback_access : 74018
LLC-writeback_hit : 73428
LLC-writeback_miss : 590
LLC-prefetch_requested : 0
LLC-prefetch_issued : 0
LLC-prefetch_useful : 2924
LLC-prefetch_useless : 56117
LLC-Avg_miss_latency : 159.043

Major fault: 0 Minor fault: 6041



Printing Logs
morteza: start

SHEET
history_access_cntr : 7441441
index_access_cntr : 3150373
sab_access_cntr : 18004610
compactor_access_cntr : 17296747

morteza: end
CPU 0 L1D next line prefetcher final stats

DRAM Statistics
 CHANNEL 0
 RQ ROW_BUFFER_HIT:      22407  ROW_BUFFER_MISS:      60027
 DBUS_CONGESTED:      34578
 WQ ROW_BUFFER_HIT:        767  ROW_BUFFER_MISS:       5236  FULL:          0

 AVG_CONGESTED_CYCLE: 5

CPU 0 Branch Prediction Accuracy: 99.6894% MPKI: 0.58048 Average ROB Occupancy at Mispredict: 143.118

Branch types
NOT_BRANCH: 40655648 81.3113%
BRANCH_DIRECT_JUMP: 546483 1.09297%
BRANCH_INDIRECT: 172433 0.344866%
BRANCH_CONDITIONAL: 6207591 12.4152%
BRANCH_DIRECT_CALL: 1018497 2.03699%
BRANCH_INDIRECT_CALL: 190373 0.380746%
BRANCH_RETURN: 1208855 2.41771%
BRANCH_OTHER: 0 0%

