Initialize SIGNATURE TABLE
ST_SET: 1
ST_WAY: 256
ST_TAG_BIT: 16
ST_TAG_MASK: ffff

Initialize PATTERN TABLE
PT_SET: 512
PT_WAY: 4
SIG_DELTA_BIT: 7
C_SIG_BIT: 4
C_DELTA_BIT: 4

Initialize PREFETCH FILTER
FILTER_SET: 1024

*** ChampSim Multicore Out-of-Order Simulator ***

Warmup Instructions: 50000000
Simulation Instructions: 50000000
Number of CPUs: 1
LLC sets: 2048
LLC ways: 16
Off-chip DRAM Size: 4096 MB Channels: 1 Width: 64-bit Data Rate: 3200 MT/s

CPU 0 runs /home/mbaradaran/ChampSim/dpc3_traces/server_032.champsimtrace.xz
CPU 0 L1D next line prefetcher
Heartbeat CPU 0 instructions: 10000002 cycles: 3520539 heartbeat IPC: 2.84047 cumulative IPC: 2.84047 (Simulation time: 0 hr 1 min 25 sec) 
Heartbeat CPU 0 instructions: 20000003 cycles: 7041847 heartbeat IPC: 2.83985 cumulative IPC: 2.84016 (Simulation time: 0 hr 2 min 57 sec) 
Heartbeat CPU 0 instructions: 30000000 cycles: 10562801 heartbeat IPC: 2.84014 cumulative IPC: 2.84016 (Simulation time: 0 hr 4 min 25 sec) 
Heartbeat CPU 0 instructions: 40000003 cycles: 14084889 heartbeat IPC: 2.83923 cumulative IPC: 2.83992 (Simulation time: 0 hr 5 min 58 sec) 
Heartbeat CPU 0 instructions: 50000000 cycles: 17605988 heartbeat IPC: 2.84002 cumulative IPC: 2.83994 (Simulation time: 0 hr 7 min 23 sec) 

Warmup complete CPU 0 instructions: 50000004 cycles: 17605989 (Simulation time: 0 hr 7 min 23 sec) 

Heartbeat CPU 0 instructions: 60000002 cycles: 24339896 heartbeat IPC: 1.48502 cumulative IPC: 1.48502 (Simulation time: 0 hr 8 min 51 sec) 
Heartbeat CPU 0 instructions: 70000000 cycles: 31076649 heartbeat IPC: 1.48439 cumulative IPC: 1.48471 (Simulation time: 0 hr 10 min 17 sec) 
*** Reached end of trace for Core: 0 Repeating trace: /home/mbaradaran/ChampSim/dpc3_traces/server_032.champsimtrace.xz
Heartbeat CPU 0 instructions: 80000003 cycles: 37814491 heartbeat IPC: 1.48416 cumulative IPC: 1.48452 (Simulation time: 0 hr 11 min 48 sec) 
Heartbeat CPU 0 instructions: 90000002 cycles: 44528309 heartbeat IPC: 1.48947 cumulative IPC: 1.48576 (Simulation time: 0 hr 13 min 24 sec) 
Heartbeat CPU 0 instructions: 100000001 cycles: 51258103 heartbeat IPC: 1.48593 cumulative IPC: 1.48579 (Simulation time: 0 hr 15 min 0 sec) 
Finished CPU 0 instructions: 50000002 cycles: 33652116 cumulative IPC: 1.48579 (Simulation time: 0 hr 15 min 0 sec) 

ChampSim completed all CPUs

Region of Interest Statistics

CPU 0 cumulative IPC: 1.48579 instructions: 50000002 cycles: 33652116

SHEET
IPC : 1.48579

L1D TOTAL     ACCESS:   19824815  HIT:   17996598  MISS:    1828217
L1D LOAD      ACCESS:    6777273  HIT:    5983180  MISS:     794093
L1D RFO       ACCESS:    6552824  HIT:    6258923  MISS:     293901
L1D PREFETCH  ACCESS:    6494718  HIT:    5754495  MISS:     740223
L1D WRITEBACK ACCESS:          0  HIT:          0  MISS:          0
L1D PREFETCH  REQUESTED:    6826869  ISSUED:    6689371  USEFUL:     170506  USELESS:     569716
L1D AVERAGE MISS LATENCY: 18.9816 cycles
L1D

SHEET
L1D-total_access : 19824815
L1D-total_hit : 17996598
L1D-total_miss : 1828217
L1D-load_access : 6777273
L1D-load_hit : 5983180
L1D-load_miss : 794093
L1D-rfo_access : 6552824
L1D-rfo_hit : 6258923
L1D-rfo_miss : 293901
L1D-prefetch_access : 6494718
L1D-prefetch_hit : 5754495
L1D-prefetch_miss : 740223
L1D-writeback_access : 0
L1D-writeback_hit : 0
L1D-writeback_miss : 0
L1D-prefetch_requested : 6826869
L1D-prefetch_issued : 6689371
L1D-prefetch_useful : 170506
L1D-prefetch_useless : 569716
L1D-Avg_miss_latency : 18.9816

L1I TOTAL     ACCESS:   16278809  HIT:   12830307  MISS:    3448502
L1I LOAD      ACCESS:    9655405  HIT:    9516477  MISS:     138928
L1I RFO       ACCESS:          0  HIT:          0  MISS:          0
L1I PREFETCH  ACCESS:    6623404  HIT:    3313830  MISS:    3309574
L1I WRITEBACK ACCESS:          0  HIT:          0  MISS:          0
L1I PREFETCH  REQUESTED:    6776158  ISSUED:    6775973  USEFUL:    3059464  USELESS:     250107
L1I AVERAGE MISS LATENCY: 16.734 cycles
L1I

SHEET
L1I-total_access : 16278809
L1I-total_hit : 12830307
L1I-total_miss : 3448502
L1I-load_access : 9655405
L1I-load_hit : 9516477
L1I-load_miss : 138928
L1I-rfo_access : 0
L1I-rfo_hit : 0
L1I-rfo_miss : 0
L1I-prefetch_access : 6623404
L1I-prefetch_hit : 3313830
L1I-prefetch_miss : 3309574
L1I-writeback_access : 0
L1I-writeback_hit : 0
L1I-writeback_miss : 0
L1I-prefetch_requested : 6776158
L1I-prefetch_issued : 6775973
L1I-prefetch_useful : 3059464
L1I-prefetch_useless : 250107
L1I-Avg_miss_latency : 16.734

L2C TOTAL     ACCESS:    7295580  HIT:    6711119  MISS:     584461
L2C LOAD      ACCESS:     790821  HIT:     702655  MISS:      88166
L2C RFO       ACCESS:     292580  HIT:     243829  MISS:      48751
L2C PREFETCH  ACCESS:    5575730  HIT:    5136954  MISS:     438776
L2C WRITEBACK ACCESS:     636449  HIT:     627681  MISS:       8768
L2C PREFETCH  REQUESTED:    6456984  ISSUED:    6440561  USEFUL:       4764  USELESS:     433843
L2C AVERAGE MISS LATENCY: 33.536 cycles
L2C

SHEET
L2C-total_access : 7295580
L2C-total_hit : 6711119
L2C-total_miss : 584461
L2C-load_access : 790821
L2C-load_hit : 702655
L2C-load_miss : 88166
L2C-rfo_access : 292580
L2C-rfo_hit : 243829
L2C-rfo_miss : 48751
L2C-prefetch_access : 5575730
L2C-prefetch_hit : 5136954
L2C-prefetch_miss : 438776
L2C-writeback_access : 636449
L2C-writeback_hit : 627681
L2C-writeback_miss : 8768
L2C-prefetch_requested : 6456984
L2C-prefetch_issued : 6440561
L2C-prefetch_useful : 4764
L2C-prefetch_useless : 433843
L2C-Avg_miss_latency : 33.536

LLC TOTAL     ACCESS:    2264469  HIT:    2256674  MISS:       7795
LLC LOAD      ACCESS:      88161  HIT:      87654  MISS:        507
LLC RFO       ACCESS:      48751  HIT:      48751  MISS:          0
LLC PREFETCH  ACCESS:    2034431  HIT:    2027168  MISS:       7263
LLC WRITEBACK ACCESS:      93126  HIT:      93101  MISS:         25
LLC PREFETCH  REQUESTED:          0  ISSUED:          0  USEFUL:        403  USELESS:       2678
LLC AVERAGE MISS LATENCY: 151.897 cycles
LLC

SHEET
LLC-total_access : 2264469
LLC-total_hit : 2256674
LLC-total_miss : 7795
LLC-load_access : 88161
LLC-load_hit : 87654
LLC-load_miss : 507
LLC-rfo_access : 48751
LLC-rfo_hit : 48751
LLC-rfo_miss : 0
LLC-prefetch_access : 2034431
LLC-prefetch_hit : 2027168
LLC-prefetch_miss : 7263
LLC-writeback_access : 93126
LLC-writeback_hit : 93101
LLC-writeback_miss : 25
LLC-prefetch_requested : 0
LLC-prefetch_issued : 0
LLC-prefetch_useful : 403
LLC-prefetch_useless : 2678
LLC-Avg_miss_latency : 151.897

Major fault: 0 Minor fault: 1178



Printing Logs
morteza: start

SHEET
history_access_cntr : 7711603
index_access_cntr : 3291696
sab_access_cntr : 18289241
compactor_access_cntr : 17582907

morteza: end
CPU 0 L1D next line prefetcher final stats

DRAM Statistics
 CHANNEL 0
 RQ ROW_BUFFER_HIT:       1796  ROW_BUFFER_MISS:       5974
 DBUS_CONGESTED:       1016
 WQ ROW_BUFFER_HIT:          1  ROW_BUFFER_MISS:         16  FULL:          0

 AVG_CONGESTED_CYCLE: 5

CPU 0 Branch Prediction Accuracy: 99.8762% MPKI: 0.2296 Average ROB Occupancy at Mispredict: 189.887

Branch types
NOT_BRANCH: 40726171 81.4523%
BRANCH_DIRECT_JUMP: 508374 1.01675%
BRANCH_INDIRECT: 180051 0.360102%
BRANCH_CONDITIONAL: 5999665 11.9993%
BRANCH_DIRECT_CALL: 1086739 2.17348%
BRANCH_INDIRECT_CALL: 206109 0.412218%
BRANCH_RETURN: 1292837 2.58567%
BRANCH_OTHER: 0 0%

