Initialize SIGNATURE TABLE
ST_SET: 1
ST_WAY: 256
ST_TAG_BIT: 16
ST_TAG_MASK: ffff

Initialize PATTERN TABLE
PT_SET: 512
PT_WAY: 4
SIG_DELTA_BIT: 7
C_SIG_BIT: 4
C_DELTA_BIT: 4

Initialize PREFETCH FILTER
FILTER_SET: 1024

*** ChampSim Multicore Out-of-Order Simulator ***

Warmup Instructions: 50000000
Simulation Instructions: 50000000
Number of CPUs: 1
LLC sets: 2048
LLC ways: 16
Off-chip DRAM Size: 4096 MB Channels: 1 Width: 64-bit Data Rate: 3200 MT/s

CPU 0 runs /home/mbaradaran/ChampSim/dpc3_traces/spec_gcc_003.champsimtrace.xz
CPU 0 L1D next line prefetcher
Heartbeat CPU 0 instructions: 10000001 cycles: 3497017 heartbeat IPC: 2.85958 cumulative IPC: 2.85958 (Simulation time: 0 hr 1 min 26 sec) 
Heartbeat CPU 0 instructions: 20000000 cycles: 6972219 heartbeat IPC: 2.87753 cumulative IPC: 2.86853 (Simulation time: 0 hr 2 min 43 sec) 
Heartbeat CPU 0 instructions: 30000002 cycles: 10417345 heartbeat IPC: 2.90265 cumulative IPC: 2.87981 (Simulation time: 0 hr 3 min 47 sec) 
Heartbeat CPU 0 instructions: 40000000 cycles: 13897555 heartbeat IPC: 2.87339 cumulative IPC: 2.8782 (Simulation time: 0 hr 4 min 59 sec) 
Heartbeat CPU 0 instructions: 50000001 cycles: 17205891 heartbeat IPC: 3.02267 cumulative IPC: 2.90598 (Simulation time: 0 hr 6 min 3 sec) 

Warmup complete CPU 0 instructions: 50000001 cycles: 17205891 (Simulation time: 0 hr 6 min 3 sec) 

Heartbeat CPU 0 instructions: 60000000 cycles: 57502868 heartbeat IPC: 0.248158 cumulative IPC: 0.248158 (Simulation time: 0 hr 8 min 36 sec) 
Heartbeat CPU 0 instructions: 70000000 cycles: 100808652 heartbeat IPC: 0.230916 cumulative IPC: 0.239227 (Simulation time: 0 hr 11 min 9 sec) 
Heartbeat CPU 0 instructions: 80000003 cycles: 144893382 heartbeat IPC: 0.226836 cumulative IPC: 0.234949 (Simulation time: 0 hr 13 min 50 sec) 
Heartbeat CPU 0 instructions: 90000002 cycles: 182061966 heartbeat IPC: 0.269044 cumulative IPC: 0.242636 (Simulation time: 0 hr 16 min 12 sec) 
Heartbeat CPU 0 instructions: 100000001 cycles: 228697758 heartbeat IPC: 0.214428 cumulative IPC: 0.236416 (Simulation time: 0 hr 19 min 0 sec) 
Finished CPU 0 instructions: 50000000 cycles: 211491867 cumulative IPC: 0.236416 (Simulation time: 0 hr 19 min 0 sec) 

ChampSim completed all CPUs

Region of Interest Statistics

CPU 0 cumulative IPC: 0.236416 instructions: 50000000 cycles: 211491867

SHEET
IPC : 0.236416

L1D TOTAL     ACCESS:   16862730  HIT:   11138398  MISS:    5724332
L1D LOAD      ACCESS:    4572429  HIT:    4189591  MISS:     382838
L1D RFO       ACCESS:    8206330  HIT:    3154775  MISS:    5051555
L1D PREFETCH  ACCESS:    4083971  HIT:    3794032  MISS:     289939
L1D WRITEBACK ACCESS:          0  HIT:          0  MISS:          0
L1D PREFETCH  REQUESTED:    4589905  ISSUED:    4529832  USEFUL:     152489  USELESS:     137630
L1D AVERAGE MISS LATENCY: 506.436 cycles
L1D

SHEET
L1D-total_access : 16862730
L1D-total_hit : 11138398
L1D-total_miss : 5724332
L1D-load_access : 4572429
L1D-load_hit : 4189591
L1D-load_miss : 382838
L1D-rfo_access : 8206330
L1D-rfo_hit : 3154775
L1D-rfo_miss : 5051555
L1D-prefetch_access : 4083971
L1D-prefetch_hit : 3794032
L1D-prefetch_miss : 289939
L1D-writeback_access : 0
L1D-writeback_hit : 0
L1D-writeback_miss : 0
L1D-prefetch_requested : 4589905
L1D-prefetch_issued : 4529832
L1D-prefetch_useful : 152489
L1D-prefetch_useless : 137630
L1D-Avg_miss_latency : 506.436

L1I TOTAL     ACCESS:   15008453  HIT:   13955292  MISS:    1053161
L1I LOAD      ACCESS:   11276734  HIT:   11148595  MISS:     128139
L1I RFO       ACCESS:          0  HIT:          0  MISS:          0
L1I PREFETCH  ACCESS:    3731719  HIT:    2806697  MISS:     925022
L1I WRITEBACK ACCESS:          0  HIT:          0  MISS:          0
L1I PREFETCH  REQUESTED:    3960342  ISSUED:    3886369  USEFUL:     656522  USELESS:     268503
L1I AVERAGE MISS LATENCY: 58.9506 cycles
L1I

SHEET
L1I-total_access : 15008453
L1I-total_hit : 13955292
L1I-total_miss : 1053161
L1I-load_access : 11276734
L1I-load_hit : 11148595
L1I-load_miss : 128139
L1I-rfo_access : 0
L1I-rfo_hit : 0
L1I-rfo_miss : 0
L1I-prefetch_access : 3731719
L1I-prefetch_hit : 2806697
L1I-prefetch_miss : 925022
L1I-writeback_access : 0
L1I-writeback_hit : 0
L1I-writeback_miss : 0
L1I-prefetch_requested : 3960342
L1I-prefetch_issued : 3886369
L1I-prefetch_useful : 656522
L1I-prefetch_useless : 268503
L1I-Avg_miss_latency : 58.9506

L2C TOTAL     ACCESS:   12231383  HIT:    6180433  MISS:    6050950
L2C LOAD      ACCESS:     274611  HIT:      86311  MISS:     188300
L2C RFO       ACCESS:    5049818  HIT:       6459  MISS:    5043359
L2C PREFETCH  ACCESS:    1749075  HIT:     930101  MISS:     818974
L2C WRITEBACK ACCESS:    5157879  HIT:    5157562  MISS:        317
L2C PREFETCH  REQUESTED:    2071093  ISSUED:    2071019  USEFUL:      39646  USELESS:     776375
L2C AVERAGE MISS LATENCY: 476.885 cycles
L2C

SHEET
L2C-total_access : 12231383
L2C-total_hit : 6180433
L2C-total_miss : 6050950
L2C-load_access : 274611
L2C-load_hit : 86311
L2C-load_miss : 188300
L2C-rfo_access : 5049818
L2C-rfo_hit : 6459
L2C-rfo_miss : 5043359
L2C-prefetch_access : 1749075
L2C-prefetch_hit : 930101
L2C-prefetch_miss : 818974
L2C-writeback_access : 5157879
L2C-writeback_hit : 5157562
L2C-writeback_miss : 317
L2C-prefetch_requested : 2071093
L2C-prefetch_issued : 2071019
L2C-prefetch_useful : 39646
L2C-prefetch_useless : 776375
L2C-Avg_miss_latency : 476.885

LLC TOTAL     ACCESS:   11958600  HIT:    7211755  MISS:    4746845
LLC LOAD      ACCESS:     188253  HIT:     140967  MISS:      47286
LLC RFO       ACCESS:    5043360  HIT:     605089  MISS:    4438271
LLC PREFETCH  ACCESS:    1593094  HIT:    1331806  MISS:     261288
LLC WRITEBACK ACCESS:    5133893  HIT:    5133893  MISS:          0
LLC PREFETCH  REQUESTED:          0  ISSUED:          0  USEFUL:      16773  USELESS:     244290
LLC AVERAGE MISS LATENCY: 577.204 cycles
LLC

SHEET
LLC-total_access : 11958600
LLC-total_hit : 7211755
LLC-total_miss : 4746845
LLC-load_access : 188253
LLC-load_hit : 140967
LLC-load_miss : 47286
LLC-rfo_access : 5043360
LLC-rfo_hit : 605089
LLC-rfo_miss : 4438271
LLC-prefetch_access : 1593094
LLC-prefetch_hit : 1331806
LLC-prefetch_miss : 261288
LLC-writeback_access : 5133894
LLC-writeback_hit : 5133894
LLC-writeback_miss : 0
LLC-prefetch_requested : 0
LLC-prefetch_issued : 0
LLC-prefetch_useful : 16773
LLC-prefetch_useless : 244290
LLC-Avg_miss_latency : 577.204

Major fault: 0 Minor fault: 2817



Printing Logs
morteza: start

SHEET
history_access_cntr : 3482322
index_access_cntr : 1259410
sab_access_cntr : 11804312
compactor_access_cntr : 10991563

morteza: end
CPU 0 L1D next line prefetcher final stats

DRAM Statistics
 CHANNEL 0
 RQ ROW_BUFFER_HIT:    1433391  ROW_BUFFER_MISS:    3313397
 DBUS_CONGESTED:    8255214
 WQ ROW_BUFFER_HIT:    1194104  ROW_BUFFER_MISS:    3273230  FULL:          0

 AVG_CONGESTED_CYCLE: 6

CPU 0 Branch Prediction Accuracy: 99.665% MPKI: 0.78342 Average ROB Occupancy at Mispredict: 117.926

Branch types
NOT_BRANCH: 38305856 76.6117%
BRANCH_DIRECT_JUMP: 384281 0.768562%
BRANCH_INDIRECT: 71949 0.143898%
BRANCH_CONDITIONAL: 9879825 19.7597%
BRANCH_DIRECT_CALL: 650586 1.30117%
BRANCH_INDIRECT_CALL: 28456 0.056912%
BRANCH_RETURN: 679046 1.35809%
BRANCH_OTHER: 0 0%

