Initialize SIGNATURE TABLE
ST_SET: 1
ST_WAY: 256
ST_TAG_BIT: 16
ST_TAG_MASK: ffff

Initialize PATTERN TABLE
PT_SET: 512
PT_WAY: 4
SIG_DELTA_BIT: 7
C_SIG_BIT: 4
C_DELTA_BIT: 4

Initialize PREFETCH FILTER
FILTER_SET: 1024

*** ChampSim Multicore Out-of-Order Simulator ***

Warmup Instructions: 50000000
Simulation Instructions: 50000000
Number of CPUs: 1
LLC sets: 2048
LLC ways: 16
Off-chip DRAM Size: 4096 MB Channels: 1 Width: 64-bit Data Rate: 3200 MT/s

CPU 0 runs /home/mbaradaran/ChampSim/dpc3_traces/spec_perlbench_001.champsimtrace.xz
CPU 0 L1D next line prefetcher
Heartbeat CPU 0 instructions: 10000000 cycles: 3275861 heartbeat IPC: 3.05263 cumulative IPC: 3.05263 (Simulation time: 0 hr 1 min 28 sec) 
Heartbeat CPU 0 instructions: 20000000 cycles: 6540721 heartbeat IPC: 3.06292 cumulative IPC: 3.05777 (Simulation time: 0 hr 2 min 39 sec) 
Heartbeat CPU 0 instructions: 30000002 cycles: 9857490 heartbeat IPC: 3.01498 cumulative IPC: 3.04337 (Simulation time: 0 hr 3 min 50 sec) 
Heartbeat CPU 0 instructions: 40000002 cycles: 13112985 heartbeat IPC: 3.07173 cumulative IPC: 3.05041 (Simulation time: 0 hr 4 min 54 sec) 
Heartbeat CPU 0 instructions: 50000001 cycles: 16386795 heartbeat IPC: 3.05454 cumulative IPC: 3.05124 (Simulation time: 0 hr 5 min 57 sec) 

Warmup complete CPU 0 instructions: 50000001 cycles: 16386795 (Simulation time: 0 hr 5 min 57 sec) 

Heartbeat CPU 0 instructions: 60000001 cycles: 24713397 heartbeat IPC: 1.20097 cumulative IPC: 1.20097 (Simulation time: 0 hr 6 min 59 sec) 
Heartbeat CPU 0 instructions: 70000003 cycles: 32911072 heartbeat IPC: 1.21986 cumulative IPC: 1.21034 (Simulation time: 0 hr 8 min 3 sec) 
Heartbeat CPU 0 instructions: 80000000 cycles: 41330070 heartbeat IPC: 1.18779 cumulative IPC: 1.20273 (Simulation time: 0 hr 9 min 3 sec) 
Heartbeat CPU 0 instructions: 90000000 cycles: 47048809 heartbeat IPC: 1.74864 cumulative IPC: 1.30455 (Simulation time: 0 hr 9 min 50 sec) 
Heartbeat CPU 0 instructions: 100000002 cycles: 52934642 heartbeat IPC: 1.699 cumulative IPC: 1.36807 (Simulation time: 0 hr 10 min 36 sec) 
Finished CPU 0 instructions: 50000001 cycles: 36547847 cumulative IPC: 1.36807 (Simulation time: 0 hr 10 min 36 sec) 

ChampSim completed all CPUs

Region of Interest Statistics

CPU 0 cumulative IPC: 1.36807 instructions: 50000001 cycles: 36547847

SHEET
IPC : 1.36807

L1D TOTAL     ACCESS:   20680574  HIT:   20265475  MISS:     415099
L1D LOAD      ACCESS:    7169816  HIT:    6956057  MISS:     213759
L1D RFO       ACCESS:    6542388  HIT:    6523881  MISS:      18507
L1D PREFETCH  ACCESS:    6968370  HIT:    6785537  MISS:     182833
L1D WRITEBACK ACCESS:          0  HIT:          0  MISS:          0
L1D PREFETCH  REQUESTED:    7185441  ISSUED:    7068881  USEFUL:      55152  USELESS:     127676
L1D AVERAGE MISS LATENCY: 57.617 cycles
L1D

SHEET
L1D-total_access : 20680574
L1D-total_hit : 20265475
L1D-total_miss : 415099
L1D-load_access : 7169816
L1D-load_hit : 6956057
L1D-load_miss : 213759
L1D-rfo_access : 6542388
L1D-rfo_hit : 6523881
L1D-rfo_miss : 18507
L1D-prefetch_access : 6968370
L1D-prefetch_hit : 6785537
L1D-prefetch_miss : 182833
L1D-writeback_access : 0
L1D-writeback_hit : 0
L1D-writeback_miss : 0
L1D-prefetch_requested : 7185441
L1D-prefetch_issued : 7068881
L1D-prefetch_useful : 55152
L1D-prefetch_useless : 127676
L1D-Avg_miss_latency : 57.617

L1I TOTAL     ACCESS:   17198973  HIT:   16568104  MISS:     630869
L1I LOAD      ACCESS:    9144490  HIT:    9080464  MISS:      64026
L1I RFO       ACCESS:          0  HIT:          0  MISS:          0
L1I PREFETCH  ACCESS:    8054483  HIT:    7487640  MISS:     566843
L1I WRITEBACK ACCESS:          0  HIT:          0  MISS:          0
L1I PREFETCH  REQUESTED:    8099201  ISSUED:    8097891  USEFUL:     343205  USELESS:     223591
L1I AVERAGE MISS LATENCY: 16.6186 cycles
L1I

SHEET
L1I-total_access : 17198973
L1I-total_hit : 16568104
L1I-total_miss : 630869
L1I-load_access : 9144490
L1I-load_hit : 9080464
L1I-load_miss : 64026
L1I-rfo_access : 0
L1I-rfo_hit : 0
L1I-rfo_miss : 0
L1I-prefetch_access : 8054483
L1I-prefetch_hit : 7487640
L1I-prefetch_miss : 566843
L1I-writeback_access : 0
L1I-writeback_hit : 0
L1I-writeback_miss : 0
L1I-prefetch_requested : 8099201
L1I-prefetch_issued : 8097891
L1I-prefetch_useful : 343205
L1I-prefetch_useless : 223591
L1I-Avg_miss_latency : 16.6186

L2C TOTAL     ACCESS:    1451880  HIT:    1286353  MISS:     165527
L2C LOAD      ACCESS:     261859  HIT:     176233  MISS:      85626
L2C RFO       ACCESS:      18269  HIT:      12834  MISS:       5435
L2C PREFETCH  ACCESS:    1092800  HIT:    1018685  MISS:      74115
L2C WRITEBACK ACCESS:      78952  HIT:      78601  MISS:        351
L2C PREFETCH  REQUESTED:     985222  ISSUED:     985185  USEFUL:       6094  USELESS:      68084
L2C AVERAGE MISS LATENCY: 117.416 cycles
L2C

SHEET
L2C-total_access : 1451880
L2C-total_hit : 1286353
L2C-total_miss : 165527
L2C-load_access : 261859
L2C-load_hit : 176233
L2C-load_miss : 85626
L2C-rfo_access : 18269
L2C-rfo_hit : 12834
L2C-rfo_miss : 5435
L2C-prefetch_access : 1092800
L2C-prefetch_hit : 1018685
L2C-prefetch_miss : 74115
L2C-writeback_access : 78952
L2C-writeback_hit : 78601
L2C-writeback_miss : 351
L2C-prefetch_requested : 985222
L2C-prefetch_issued : 985185
L2C-prefetch_useful : 6094
L2C-prefetch_useless : 68084
L2C-Avg_miss_latency : 117.416

LLC TOTAL     ACCESS:     423512  HIT:     282522  MISS:     140990
LLC LOAD      ACCESS:      85614  HIT:      35410  MISS:      50204
LLC RFO       ACCESS:       5434  HIT:       2390  MISS:       3044
LLC PREFETCH  ACCESS:     306990  HIT:     219723  MISS:      87267
LLC WRITEBACK ACCESS:      25474  HIT:      24999  MISS:        475
LLC PREFETCH  REQUESTED:          0  ISSUED:          0  USEFUL:      16043  USELESS:      71183
LLC AVERAGE MISS LATENCY: 158.181 cycles
LLC

SHEET
LLC-total_access : 423512
LLC-total_hit : 282522
LLC-total_miss : 140990
LLC-load_access : 85614
LLC-load_hit : 35410
LLC-load_miss : 50204
LLC-rfo_access : 5434
LLC-rfo_hit : 2390
LLC-rfo_miss : 3044
LLC-prefetch_access : 306990
LLC-prefetch_hit : 219723
LLC-prefetch_miss : 87267
LLC-writeback_access : 25474
LLC-writeback_hit : 24999
LLC-writeback_miss : 475
LLC-prefetch_requested : 0
LLC-prefetch_issued : 0
LLC-prefetch_useful : 16043
LLC-prefetch_useless : 71183
LLC-Avg_miss_latency : 158.181

Major fault: 0 Minor fault: 6364



Printing Logs
morteza: start

SHEET
history_access_cntr : 6719535
index_access_cntr : 1923398
sab_access_cntr : 18834443
compactor_access_cntr : 15667401

morteza: end
CPU 0 L1D next line prefetcher final stats

DRAM Statistics
 CHANNEL 0
 RQ ROW_BUFFER_HIT:      31894  ROW_BUFFER_MISS:     108620
 DBUS_CONGESTED:      57249
 WQ ROW_BUFFER_HIT:       4396  ROW_BUFFER_MISS:      12890  FULL:          0

 AVG_CONGESTED_CYCLE: 4

CPU 0 Branch Prediction Accuracy: 98.7418% MPKI: 2.47758 Average ROB Occupancy at Mispredict: 79.2493

Branch types
NOT_BRANCH: 40154100 80.3082%
BRANCH_DIRECT_JUMP: 817094 1.63419%
BRANCH_INDIRECT: 303787 0.607574%
BRANCH_CONDITIONAL: 7492103 14.9842%
BRANCH_DIRECT_CALL: 471777 0.943554%
BRANCH_INDIRECT_CALL: 144546 0.289092%
BRANCH_RETURN: 616324 1.23265%
BRANCH_OTHER: 0 0%

