Initialize SIGNATURE TABLE
ST_SET: 1
ST_WAY: 256
ST_TAG_BIT: 16
ST_TAG_MASK: ffff

Initialize PATTERN TABLE
PT_SET: 512
PT_WAY: 4
SIG_DELTA_BIT: 7
C_SIG_BIT: 4
C_DELTA_BIT: 4

Initialize PREFETCH FILTER
FILTER_SET: 1024
MANA initialize 
tds: 2 tdm: 4
size MANA SINGLE: 74 KB
size MANA NULTIPLE: 43 KB
size HOBPT: 5 KB
size SRQ: 0.14502 KB
size SABs: 0.290039 KB
size prefetch queue: 0.453125 KB
total: 122.888 KB

*** ChampSim Multicore Out-of-Order Simulator ***

Warmup Instructions: 50000000
Simulation Instructions: 50000000
Number of CPUs: 1
LLC sets: 2048
LLC ways: 16
Off-chip DRAM Size: 4096 MB Channels: 1 Width: 64-bit Data Rate: 3200 MT/s

CPU 0 runs /home/mbaradaran/ChampSim/dpc3_traces/client_004.champsimtrace.xz
CPU 0 L1D next line prefetcher
Heartbeat CPU 0 instructions: 10000000 cycles: 3593387 heartbeat IPC: 2.78289 cumulative IPC: 2.78289 (Simulation time: 0 hr 1 min 40 sec) 
Heartbeat CPU 0 instructions: 20000003 cycles: 7058244 heartbeat IPC: 2.88612 cumulative IPC: 2.83357 (Simulation time: 0 hr 3 min 25 sec) 
Heartbeat CPU 0 instructions: 30000000 cycles: 10650126 heartbeat IPC: 2.78405 cumulative IPC: 2.81687 (Simulation time: 0 hr 5 min 18 sec) 
Heartbeat CPU 0 instructions: 40000003 cycles: 14331346 heartbeat IPC: 2.71649 cumulative IPC: 2.79108 (Simulation time: 0 hr 7 min 10 sec) 
Heartbeat CPU 0 instructions: 50000001 cycles: 17850475 heartbeat IPC: 2.84161 cumulative IPC: 2.80105 (Simulation time: 0 hr 9 min 4 sec) 

Warmup complete CPU 0 instructions: 50000001 cycles: 17850475 (Simulation time: 0 hr 9 min 4 sec) 

Heartbeat CPU 0 instructions: 60000002 cycles: 25732638 heartbeat IPC: 1.26869 cumulative IPC: 1.26869 (Simulation time: 0 hr 10 min 36 sec) 
Heartbeat CPU 0 instructions: 70000001 cycles: 33665112 heartbeat IPC: 1.26064 cumulative IPC: 1.26465 (Simulation time: 0 hr 12 min 12 sec) 
Heartbeat CPU 0 instructions: 80000002 cycles: 42455811 heartbeat IPC: 1.13757 cumulative IPC: 1.21925 (Simulation time: 0 hr 13 min 47 sec) 
Heartbeat CPU 0 instructions: 90000000 cycles: 50649661 heartbeat IPC: 1.22043 cumulative IPC: 1.21954 (Simulation time: 0 hr 15 min 17 sec) 
Heartbeat CPU 0 instructions: 100000001 cycles: 58623194 heartbeat IPC: 1.25415 cumulative IPC: 1.22631 (Simulation time: 0 hr 16 min 52 sec) 
Finished CPU 0 instructions: 50000000 cycles: 40772719 cumulative IPC: 1.22631 (Simulation time: 0 hr 16 min 52 sec) 

ChampSim completed all CPUs

Region of Interest Statistics

CPU 0 cumulative IPC: 1.22631 instructions: 50000000 cycles: 40772719

SHEET
IPC : 1.22631

L1D TOTAL     ACCESS:   21959686  HIT:   21070741  MISS:     888945
L1D LOAD      ACCESS:    8722256  HIT:    8326272  MISS:     395984
L1D RFO       ACCESS:    4808950  HIT:    4687543  MISS:     121407
L1D PREFETCH  ACCESS:    8428480  HIT:    8056926  MISS:     371554
L1D WRITEBACK ACCESS:          0  HIT:          0  MISS:          0
L1D PREFETCH  REQUESTED:    8762010  ISSUED:    8602380  USEFUL:     133081  USELESS:     238481
L1D AVERAGE MISS LATENCY: 30.4689 cycles
L1D

SHEET
L1D-total_access : 21959686
L1D-total_hit : 21070741
L1D-total_miss : 888945
L1D-load_access : 8722256
L1D-load_hit : 8326272
L1D-load_miss : 395984
L1D-rfo_access : 4808950
L1D-rfo_hit : 4687543
L1D-rfo_miss : 121407
L1D-prefetch_access : 8428480
L1D-prefetch_hit : 8056926
L1D-prefetch_miss : 371554
L1D-writeback_access : 0
L1D-writeback_hit : 0
L1D-writeback_miss : 0
L1D-prefetch_requested : 8762010
L1D-prefetch_issued : 8602380
L1D-prefetch_useful : 133081
L1D-prefetch_useless : 238481
L1D-Avg_miss_latency : 30.4689
L1D-Morteza_fill_l2_prefetches : 0

L1I TOTAL     ACCESS:   17804491  HIT:   16813037  MISS:     991454
L1I LOAD      ACCESS:    9384712  HIT:    9219687  MISS:     165025
L1I RFO       ACCESS:          0  HIT:          0  MISS:          0
L1I PREFETCH  ACCESS:    8419779  HIT:    7593350  MISS:     826429
L1I WRITEBACK ACCESS:          0  HIT:          0  MISS:          0
L1I PREFETCH  REQUESTED:    9319845  ISSUED:    9044180  USEFUL:     432304  USELESS:     394092
L1I AVERAGE MISS LATENCY: 25.6214 cycles
L1I

SHEET
L1I-total_access : 17804491
L1I-total_hit : 16813037
L1I-total_miss : 991454
L1I-load_access : 9384712
L1I-load_hit : 9219687
L1I-load_miss : 165025
L1I-rfo_access : 0
L1I-rfo_hit : 0
L1I-rfo_miss : 0
L1I-prefetch_access : 8419779
L1I-prefetch_hit : 7593350
L1I-prefetch_miss : 826429
L1I-writeback_access : 0
L1I-writeback_hit : 0
L1I-writeback_miss : 0
L1I-prefetch_requested : 9319845
L1I-prefetch_issued : 9044180
L1I-prefetch_useful : 432304
L1I-prefetch_useless : 394092
L1I-Avg_miss_latency : 25.6214
L1I-Morteza_fill_l2_prefetches : 0

L2C TOTAL     ACCESS:    2740021  HIT:    2416215  MISS:     323806
L2C LOAD      ACCESS:     516998  HIT:     438044  MISS:      78954
L2C RFO       ACCESS:     117369  HIT:      44193  MISS:      73176
L2C PREFETCH  ACCESS:    1883658  HIT:    1713030  MISS:     170628
L2C WRITEBACK ACCESS:     221996  HIT:     220948  MISS:       1048
L2C PREFETCH  REQUESTED:    1914514  ISSUED:    1913780  USEFUL:      27412  USELESS:     141576
L2C AVERAGE MISS LATENCY: 82.7553 cycles
L2C

SHEET
L2C-total_access : 2740021
L2C-total_hit : 2416215
L2C-total_miss : 323806
L2C-load_access : 516998
L2C-load_hit : 438044
L2C-load_miss : 78954
L2C-rfo_access : 117369
L2C-rfo_hit : 44193
L2C-rfo_miss : 73176
L2C-prefetch_access : 1883658
L2C-prefetch_hit : 1713030
L2C-prefetch_miss : 170628
L2C-writeback_access : 221996
L2C-writeback_hit : 220948
L2C-writeback_miss : 1048
L2C-prefetch_requested : 1914514
L2C-prefetch_issued : 1913780
L2C-prefetch_useful : 27412
L2C-prefetch_useless : 141576
L2C-Avg_miss_latency : 82.7553
L2C-Morteza_fill_l2_prefetches : 648797

LLC TOTAL     ACCESS:     814454  HIT:     669784  MISS:     144670
LLC LOAD      ACCESS:      78938  HIT:      55683  MISS:      23255
LLC RFO       ACCESS:      73176  HIT:      41298  MISS:      31878
LLC PREFETCH  ACCESS:     559273  HIT:     470061  MISS:      89212
LLC WRITEBACK ACCESS:     103067  HIT:     102742  MISS:        325
LLC PREFETCH  REQUESTED:          0  ISSUED:          0  USEFUL:      23623  USELESS:      64530
LLC AVERAGE MISS LATENCY: 182.982 cycles
LLC

SHEET
LLC-total_access : 814454
LLC-total_hit : 669784
LLC-total_miss : 144670
LLC-load_access : 78938
LLC-load_hit : 55683
LLC-load_miss : 23255
LLC-rfo_access : 73176
LLC-rfo_hit : 41298
LLC-rfo_miss : 31878
LLC-prefetch_access : 559273
LLC-prefetch_hit : 470061
LLC-prefetch_miss : 89212
LLC-writeback_access : 103067
LLC-writeback_hit : 102742
LLC-writeback_miss : 325
LLC-prefetch_requested : 0
LLC-prefetch_issued : 0
LLC-prefetch_useful : 23623
LLC-prefetch_useless : 64530
LLC-Avg_miss_latency : 182.982
LLC-Morteza_fill_l2_prefetches : 345035

Major fault: 0 Minor fault: 4040



Printing Logs
statHeadFound: 1038756
statHeadMissing: 1126345
statStreamBufferHit: 12310726
statPrefetchEntryFound: 6376700
statCompactorMatch: 13141715
statStreamTrackerLookup: 14475827
statRecord: 1334112
statGetPointer: 2165101
statEnqueuePrefetch: 18443913
statPrefetchQueueIsFull: 45433
StreamBufferHitRate: 0.850433
Regions' size: 11282
next_region_correct: 775759
next_region_wrong: 547053
next_region_correct_prediction: 0.586447
statStreamBufferLookups: 1042259544
statL1iLookups: 147551304
statCompactorLookups: 521129772
morteza: start

SHEET
mana_table_access_counter : 2267316
mana_table_multiple_access_counter : 6568413
hobp_table_access_counter : 29147249
sab_access_counter : 18687426
srq_access_counter : 12999083

morteza: end
CPU 0 L1D next line prefetcher final stats

DRAM Statistics
 CHANNEL 0
 RQ ROW_BUFFER_HIT:      34661  ROW_BUFFER_MISS:     109663
 DBUS_CONGESTED:      69501
 WQ ROW_BUFFER_HIT:       9309  ROW_BUFFER_MISS:      37819  FULL:          0

 AVG_CONGESTED_CYCLE: 6

CPU 0 Branch Prediction Accuracy: 94.1242% MPKI: 11.6089 Average ROB Occupancy at Mispredict: 55.3217

Branch types
NOT_BRANCH: 40121080 80.2422%
BRANCH_DIRECT_JUMP: 644555 1.28911%
BRANCH_INDIRECT: 201946 0.403892%
BRANCH_CONDITIONAL: 7003557 14.0071%
BRANCH_DIRECT_CALL: 564821 1.12964%
BRANCH_INDIRECT_CALL: 445012 0.890024%
BRANCH_RETURN: 1018716 2.03743%
BRANCH_OTHER: 0 0%

