Initialize SIGNATURE TABLE
ST_SET: 1
ST_WAY: 256
ST_TAG_BIT: 16
ST_TAG_MASK: ffff

Initialize PATTERN TABLE
PT_SET: 512
PT_WAY: 4
SIG_DELTA_BIT: 7
C_SIG_BIT: 4
C_DELTA_BIT: 4

Initialize PREFETCH FILTER
FILTER_SET: 1024
MANA initialize 
tds: 2 tdm: 4
size MANA SINGLE: 74 KB
size MANA NULTIPLE: 43 KB
size HOBPT: 5 KB
size SRQ: 0.14502 KB
size SABs: 0.290039 KB
size prefetch queue: 0.453125 KB
total: 122.888 KB

*** ChampSim Multicore Out-of-Order Simulator ***

Warmup Instructions: 50000000
Simulation Instructions: 50000000
Number of CPUs: 1
LLC sets: 2048
LLC ways: 16
Off-chip DRAM Size: 4096 MB Channels: 1 Width: 64-bit Data Rate: 3200 MT/s

CPU 0 runs /home/mbaradaran/ChampSim/dpc3_traces/server_016.champsimtrace.xz
CPU 0 L1D next line prefetcher
Heartbeat CPU 0 instructions: 10000000 cycles: 3502947 heartbeat IPC: 2.85474 cumulative IPC: 2.85474 (Simulation time: 0 hr 1 min 47 sec) 
Heartbeat CPU 0 instructions: 20000000 cycles: 7005582 heartbeat IPC: 2.85499 cumulative IPC: 2.85487 (Simulation time: 0 hr 3 min 43 sec) 
Heartbeat CPU 0 instructions: 30000001 cycles: 10503756 heartbeat IPC: 2.85863 cumulative IPC: 2.85612 (Simulation time: 0 hr 5 min 41 sec) 
Heartbeat CPU 0 instructions: 40000000 cycles: 13803141 heartbeat IPC: 3.03087 cumulative IPC: 2.89789 (Simulation time: 0 hr 6 min 39 sec) 
Heartbeat CPU 0 instructions: 50000002 cycles: 17038606 heartbeat IPC: 3.09075 cumulative IPC: 2.93451 (Simulation time: 0 hr 7 min 21 sec) 

Warmup complete CPU 0 instructions: 50000002 cycles: 17038606 (Simulation time: 0 hr 7 min 21 sec) 

Heartbeat CPU 0 instructions: 60000000 cycles: 25022319 heartbeat IPC: 1.25255 cumulative IPC: 1.25255 (Simulation time: 0 hr 8 min 12 sec) 
Heartbeat CPU 0 instructions: 70000001 cycles: 31997189 heartbeat IPC: 1.43372 cumulative IPC: 1.33702 (Simulation time: 0 hr 9 min 59 sec) 
Heartbeat CPU 0 instructions: 80000000 cycles: 39092203 heartbeat IPC: 1.40944 cumulative IPC: 1.36032 (Simulation time: 0 hr 11 min 52 sec) 
Heartbeat CPU 0 instructions: 90000000 cycles: 45968363 heartbeat IPC: 1.4543 cumulative IPC: 1.38266 (Simulation time: 0 hr 13 min 45 sec) 
Heartbeat CPU 0 instructions: 100000000 cycles: 52989892 heartbeat IPC: 1.42419 cumulative IPC: 1.39077 (Simulation time: 0 hr 15 min 37 sec) 
Finished CPU 0 instructions: 50000000 cycles: 35951287 cumulative IPC: 1.39077 (Simulation time: 0 hr 15 min 37 sec) 

ChampSim completed all CPUs

Region of Interest Statistics

CPU 0 cumulative IPC: 1.39077 instructions: 50000000 cycles: 35951287

SHEET
IPC : 1.39077

L1D TOTAL     ACCESS:   18172714  HIT:   16905206  MISS:    1267508
L1D LOAD      ACCESS:    6624807  HIT:    6052193  MISS:     572614
L1D RFO       ACCESS:    5201883  HIT:    4979943  MISS:     221940
L1D PREFETCH  ACCESS:    6346024  HIT:    5873070  MISS:     472954
L1D WRITEBACK ACCESS:          0  HIT:          0  MISS:          0
L1D PREFETCH  REQUESTED:    6667057  ISSUED:    6564472  USEFUL:     113855  USELESS:     359117
L1D AVERAGE MISS LATENCY: 23.4374 cycles
L1D

SHEET
L1D-total_access : 18172714
L1D-total_hit : 16905206
L1D-total_miss : 1267508
L1D-load_access : 6624807
L1D-load_hit : 6052193
L1D-load_miss : 572614
L1D-rfo_access : 5201883
L1D-rfo_hit : 4979943
L1D-rfo_miss : 221940
L1D-prefetch_access : 6346024
L1D-prefetch_hit : 5873070
L1D-prefetch_miss : 472954
L1D-writeback_access : 0
L1D-writeback_hit : 0
L1D-writeback_miss : 0
L1D-prefetch_requested : 6667057
L1D-prefetch_issued : 6564472
L1D-prefetch_useful : 113855
L1D-prefetch_useless : 359117
L1D-Avg_miss_latency : 23.4374
L1D-Morteza_fill_l2_prefetches : 0

L1I TOTAL     ACCESS:   16374335  HIT:   13170712  MISS:    3203623
L1I LOAD      ACCESS:    9751977  HIT:    9325615  MISS:     426362
L1I RFO       ACCESS:          0  HIT:          0  MISS:          0
L1I PREFETCH  ACCESS:    6622358  HIT:    3845097  MISS:    2777261
L1I WRITEBACK ACCESS:          0  HIT:          0  MISS:          0
L1I PREFETCH  REQUESTED:    7270368  ISSUED:    7150795  USEFUL:    1747315  USELESS:    1029899
L1I AVERAGE MISS LATENCY: 16.9108 cycles
L1I

SHEET
L1I-total_access : 16374335
L1I-total_hit : 13170712
L1I-total_miss : 3203623
L1I-load_access : 9751977
L1I-load_hit : 9325615
L1I-load_miss : 426362
L1I-rfo_access : 0
L1I-rfo_hit : 0
L1I-rfo_miss : 0
L1I-prefetch_access : 6622358
L1I-prefetch_hit : 3845097
L1I-prefetch_miss : 2777261
L1I-writeback_access : 0
L1I-writeback_hit : 0
L1I-writeback_miss : 0
L1I-prefetch_requested : 7270368
L1I-prefetch_issued : 7150795
L1I-prefetch_useful : 1747315
L1I-prefetch_useless : 1029899
L1I-Avg_miss_latency : 16.9108
L1I-Morteza_fill_l2_prefetches : 0

L2C TOTAL     ACCESS:    6043307  HIT:    5502457  MISS:     540850
L2C LOAD      ACCESS:     824002  HIT:     694460  MISS:     129542
L2C RFO       ACCESS:     220376  HIT:     157349  MISS:      63027
L2C PREFETCH  ACCESS:    4570735  HIT:    4224828  MISS:     345907
L2C WRITEBACK ACCESS:     428194  HIT:     425820  MISS:       2374
L2C PREFETCH  REQUESTED:    5255522  ISSUED:    5245557  USEFUL:      23276  USELESS:     321978
L2C AVERAGE MISS LATENCY: 41.4066 cycles
L2C

SHEET
L2C-total_access : 6043307
L2C-total_hit : 5502457
L2C-total_miss : 540850
L2C-load_access : 824002
L2C-load_hit : 694460
L2C-load_miss : 129542
L2C-rfo_access : 220376
L2C-rfo_hit : 157349
L2C-rfo_miss : 63027
L2C-prefetch_access : 4570735
L2C-prefetch_hit : 4224828
L2C-prefetch_miss : 345907
L2C-writeback_access : 428194
L2C-writeback_hit : 425820
L2C-writeback_miss : 2374
L2C-prefetch_requested : 5255522
L2C-prefetch_issued : 5245557
L2C-prefetch_useful : 23276
L2C-prefetch_useless : 321978
L2C-Avg_miss_latency : 41.4066
L2C-Morteza_fill_l2_prefetches : 1179797

LLC TOTAL     ACCESS:    1914663  HIT:    1879011  MISS:      35652
LLC LOAD      ACCESS:     129387  HIT:     125206  MISS:       4181
LLC RFO       ACCESS:      63011  HIT:      49572  MISS:      13439
LLC PREFETCH  ACCESS:    1616438  HIT:    1598552  MISS:      17886
LLC WRITEBACK ACCESS:     105827  HIT:     105681  MISS:        146
LLC PREFETCH  REQUESTED:          0  ISSUED:          0  USEFUL:       1845  USELESS:      15953
LLC AVERAGE MISS LATENCY: 177.896 cycles
LLC

SHEET
LLC-total_access : 1914663
LLC-total_hit : 1879011
LLC-total_miss : 35652
LLC-load_access : 129387
LLC-load_hit : 125206
LLC-load_miss : 4181
LLC-rfo_access : 63011
LLC-rfo_hit : 49572
LLC-rfo_miss : 13439
LLC-prefetch_access : 1616438
LLC-prefetch_hit : 1598552
LLC-prefetch_miss : 17886
LLC-writeback_access : 105827
LLC-writeback_hit : 105681
LLC-writeback_miss : 146
LLC-prefetch_requested : 0
LLC-prefetch_issued : 0
LLC-prefetch_useful : 1845
LLC-prefetch_useless : 15953
LLC-Avg_miss_latency : 177.896
LLC-Morteza_fill_l2_prefetches : 1273665

Major fault: 0 Minor fault: 2428



Printing Logs
statHeadFound: 515962
statHeadMissing: 791376
statStreamBufferHit: 13462703
statPrefetchEntryFound: 4237635
statCompactorMatch: 13039748
statStreamTrackerLookup: 14770041
statRecord: 1730293
statGetPointer: 1307338
statEnqueuePrefetch: 12781850
statPrefetchQueueIsFull: 3043
StreamBufferHitRate: 0.911487
Regions' size: 2201
next_region_correct: 1170387
next_region_wrong: 557687
next_region_correct_prediction: 0.677278
statStreamBufferLookups: 1063442952
statL1iLookups: 102254800
statCompactorLookups: 531721476
morteza: start

SHEET
mana_table_access_counter : 3293573
mana_table_multiple_access_counter : 3196507
hobp_table_access_counter : 21625789
sab_access_counter : 17700338
srq_access_counter : 13318383

morteza: end
CPU 0 L1D next line prefetcher final stats

DRAM Statistics
 CHANNEL 0
 RQ ROW_BUFFER_HIT:      11318  ROW_BUFFER_MISS:      24181
 DBUS_CONGESTED:      23666
 WQ ROW_BUFFER_HIT:       1618  ROW_BUFFER_MISS:      14318  FULL:          0

 AVG_CONGESTED_CYCLE: 6

CPU 0 Branch Prediction Accuracy: 99.7225% MPKI: 0.50376 Average ROB Occupancy at Mispredict: 117.284

Branch types
NOT_BRANCH: 40923882 81.8478%
BRANCH_DIRECT_JUMP: 487045 0.97409%
BRANCH_INDIRECT: 169158 0.338316%
BRANCH_CONDITIONAL: 6640823 13.2816%
BRANCH_DIRECT_CALL: 755586 1.51117%
BRANCH_INDIRECT_CALL: 133962 0.267924%
BRANCH_RETURN: 889566 1.77913%
BRANCH_OTHER: 0 0%

