Initialize SIGNATURE TABLE
ST_SET: 1
ST_WAY: 256
ST_TAG_BIT: 16
ST_TAG_MASK: ffff

Initialize PATTERN TABLE
PT_SET: 512
PT_WAY: 4
SIG_DELTA_BIT: 7
C_SIG_BIT: 4
C_DELTA_BIT: 4

Initialize PREFETCH FILTER
FILTER_SET: 1024
MANA initialize 
tds: 2 tdm: 4
size MANA SINGLE: 74 KB
size MANA NULTIPLE: 43 KB
size HOBPT: 5 KB
size SRQ: 0.14502 KB
size SABs: 0.290039 KB
size prefetch queue: 0.453125 KB
total: 122.888 KB

*** ChampSim Multicore Out-of-Order Simulator ***

Warmup Instructions: 50000000
Simulation Instructions: 50000000
Number of CPUs: 1
LLC sets: 2048
LLC ways: 16
Off-chip DRAM Size: 4096 MB Channels: 1 Width: 64-bit Data Rate: 3200 MT/s

CPU 0 runs /home/mbaradaran/ChampSim/dpc3_traces/server_004.champsimtrace.xz
CPU 0 L1D next line prefetcher
Heartbeat CPU 0 instructions: 10000002 cycles: 3231042 heartbeat IPC: 3.09498 cumulative IPC: 3.09498 (Simulation time: 0 hr 1 min 43 sec) 
Heartbeat CPU 0 instructions: 20000002 cycles: 6568246 heartbeat IPC: 2.99652 cumulative IPC: 3.04495 (Simulation time: 0 hr 3 min 31 sec) 
Heartbeat CPU 0 instructions: 30000000 cycles: 11685767 heartbeat IPC: 1.95407 cumulative IPC: 2.56723 (Simulation time: 0 hr 5 min 52 sec) 
Heartbeat CPU 0 instructions: 40000003 cycles: 15435648 heartbeat IPC: 2.66675 cumulative IPC: 2.5914 (Simulation time: 0 hr 7 min 50 sec) 
Heartbeat CPU 0 instructions: 50000003 cycles: 18666167 heartbeat IPC: 3.09548 cumulative IPC: 2.67864 (Simulation time: 0 hr 9 min 39 sec) 

Warmup complete CPU 0 instructions: 50000003 cycles: 18666167 (Simulation time: 0 hr 9 min 39 sec) 

Heartbeat CPU 0 instructions: 60000002 cycles: 27355603 heartbeat IPC: 1.15082 cumulative IPC: 1.15082 (Simulation time: 0 hr 11 min 19 sec) 
Heartbeat CPU 0 instructions: 70000000 cycles: 35556406 heartbeat IPC: 1.21939 cumulative IPC: 1.18412 (Simulation time: 0 hr 13 min 2 sec) 
Heartbeat CPU 0 instructions: 80000001 cycles: 56510250 heartbeat IPC: 0.477239 cumulative IPC: 0.792726 (Simulation time: 0 hr 15 min 51 sec) 
Heartbeat CPU 0 instructions: 90000003 cycles: 71420089 heartbeat IPC: 0.670698 cumulative IPC: 0.758237 (Simulation time: 0 hr 17 min 57 sec) 
Heartbeat CPU 0 instructions: 100000003 cycles: 80170823 heartbeat IPC: 1.14276 cumulative IPC: 0.812947 (Simulation time: 0 hr 19 min 32 sec) 
Finished CPU 0 instructions: 50000000 cycles: 61504656 cumulative IPC: 0.812947 (Simulation time: 0 hr 19 min 32 sec) 

ChampSim completed all CPUs

Region of Interest Statistics

CPU 0 cumulative IPC: 0.812947 instructions: 50000000 cycles: 61504656

SHEET
IPC : 0.812947

L1D TOTAL     ACCESS:   21680019  HIT:   17608815  MISS:    4071204
L1D LOAD      ACCESS:    8622550  HIT:    6604008  MISS:    2018542
L1D RFO       ACCESS:    4644632  HIT:    4537711  MISS:     106921
L1D PREFETCH  ACCESS:    8412837  HIT:    6467096  MISS:    1945741
L1D WRITEBACK ACCESS:          0  HIT:          0  MISS:          0
L1D PREFETCH  REQUESTED:    8658394  ISSUED:    8569298  USEFUL:     106057  USELESS:    1839675
L1D AVERAGE MISS LATENCY: 23.0193 cycles
L1D

SHEET
L1D-total_access : 21680019
L1D-total_hit : 17608815
L1D-total_miss : 4071204
L1D-load_access : 8622550
L1D-load_hit : 6604008
L1D-load_miss : 2018542
L1D-rfo_access : 4644632
L1D-rfo_hit : 4537711
L1D-rfo_miss : 106921
L1D-prefetch_access : 8412837
L1D-prefetch_hit : 6467096
L1D-prefetch_miss : 1945741
L1D-writeback_access : 0
L1D-writeback_hit : 0
L1D-writeback_miss : 0
L1D-prefetch_requested : 8658394
L1D-prefetch_issued : 8569298
L1D-prefetch_useful : 106057
L1D-prefetch_useless : 1839675
L1D-Avg_miss_latency : 23.0193
L1D-Morteza_fill_l2_prefetches : 0

L1I TOTAL     ACCESS:   17619890  HIT:   15911380  MISS:    1708510
L1I LOAD      ACCESS:   10693049  HIT:   10465692  MISS:     227357
L1I RFO       ACCESS:          0  HIT:          0  MISS:          0
L1I PREFETCH  ACCESS:    6926841  HIT:    5445688  MISS:    1481153
L1I WRITEBACK ACCESS:          0  HIT:          0  MISS:          0
L1I PREFETCH  REQUESTED:    7713258  ISSUED:    7264713  USEFUL:     895117  USELESS:     585953
L1I AVERAGE MISS LATENCY: 33.3772 cycles
L1I

SHEET
L1I-total_access : 17619890
L1I-total_hit : 15911380
L1I-total_miss : 1708510
L1I-load_access : 10693049
L1I-load_hit : 10465692
L1I-load_miss : 227357
L1I-rfo_access : 0
L1I-rfo_hit : 0
L1I-rfo_miss : 0
L1I-prefetch_access : 6926841
L1I-prefetch_hit : 5445688
L1I-prefetch_miss : 1481153
L1I-writeback_access : 0
L1I-writeback_hit : 0
L1I-writeback_miss : 0
L1I-prefetch_requested : 7713258
L1I-prefetch_issued : 7264713
L1I-prefetch_useful : 895117
L1I-prefetch_useless : 585953
L1I-Avg_miss_latency : 33.3772
L1I-Morteza_fill_l2_prefetches : 0

L2C TOTAL     ACCESS:    7297227  HIT:    6190975  MISS:    1106252
L2C LOAD      ACCESS:    2160446  HIT:    1883933  MISS:     276513
L2C RFO       ACCESS:     105629  HIT:      57027  MISS:      48602
L2C PREFETCH  ACCESS:    4786085  HIT:    4007192  MISS:     778893
L2C WRITEBACK ACCESS:     245067  HIT:     242823  MISS:       2244
L2C PREFETCH  REQUESTED:    6134185  ISSUED:    6131670  USEFUL:      42733  USELESS:     735240
L2C AVERAGE MISS LATENCY: 59.0091 cycles
L2C

SHEET
L2C-total_access : 7297227
L2C-total_hit : 6190975
L2C-total_miss : 1106252
L2C-load_access : 2160446
L2C-load_hit : 1883933
L2C-load_miss : 276513
L2C-rfo_access : 105629
L2C-rfo_hit : 57027
L2C-rfo_miss : 48602
L2C-prefetch_access : 4786085
L2C-prefetch_hit : 4007192
L2C-prefetch_miss : 778893
L2C-writeback_access : 245067
L2C-writeback_hit : 242823
L2C-writeback_miss : 2244
L2C-prefetch_requested : 6134185
L2C-prefetch_issued : 6131670
L2C-prefetch_useful : 42733
L2C-prefetch_useless : 735240
L2C-Avg_miss_latency : 59.0091
L2C-Morteza_fill_l2_prefetches : 1278729

LLC TOTAL     ACCESS:    2421117  HIT:    2190169  MISS:     230948
LLC LOAD      ACCESS:     275937  HIT:     233509  MISS:      42428
LLC RFO       ACCESS:      48596  HIT:      34189  MISS:      14407
LLC PREFETCH  ACCESS:    1954063  HIT:    1780265  MISS:     173798
LLC WRITEBACK ACCESS:     142521  HIT:     142206  MISS:        315
LLC PREFETCH  REQUESTED:          0  ISSUED:          0  USEFUL:      18274  USELESS:     154137
LLC AVERAGE MISS LATENCY: 177.364 cycles
LLC

SHEET
LLC-total_access : 2421117
LLC-total_hit : 2190169
LLC-total_miss : 230948
LLC-load_access : 275937
LLC-load_hit : 233509
LLC-load_miss : 42428
LLC-rfo_access : 48596
LLC-rfo_hit : 34189
LLC-rfo_miss : 14407
LLC-prefetch_access : 1954063
LLC-prefetch_hit : 1780265
LLC-prefetch_miss : 173798
LLC-writeback_access : 142521
LLC-writeback_hit : 142206
LLC-writeback_miss : 315
LLC-prefetch_requested : 0
LLC-prefetch_issued : 0
LLC-prefetch_useful : 18274
LLC-prefetch_useless : 154137
LLC-Avg_miss_latency : 177.364
LLC-Morteza_fill_l2_prefetches : 1143940

Major fault: 0 Minor fault: 7656



Printing Logs
statHeadFound: 539445
statHeadMissing: 809752
statStreamBufferHit: 13998330
statPrefetchEntryFound: 4482136
statCompactorMatch: 13486217
statStreamTrackerLookup: 15347527
statRecord: 1861310
statGetPointer: 1349197
statEnqueuePrefetch: 14207091
statPrefetchQueueIsFull: 27679
StreamBufferHitRate: 0.91209
Regions' size: 8598
next_region_correct: 1518351
next_region_wrong: 334343
next_region_correct_prediction: 0.819537
statStreamBufferLookups: 1105021944
statL1iLookups: 113656728
statCompactorLookups: 552510972
morteza: start

SHEET
mana_table_access_counter : 2901815
mana_table_multiple_access_counter : 4025978
hobp_table_access_counter : 22777324
sab_access_counter : 18480466
srq_access_counter : 14069621

morteza: end
CPU 0 L1D next line prefetcher final stats

DRAM Statistics
 CHANNEL 0
 RQ ROW_BUFFER_HIT:      48366  ROW_BUFFER_MISS:     182252
 DBUS_CONGESTED:     100042
 WQ ROW_BUFFER_HIT:      10516  ROW_BUFFER_MISS:      43273  FULL:          0

 AVG_CONGESTED_CYCLE: 5

CPU 0 Branch Prediction Accuracy: 98.1603% MPKI: 3.89124 Average ROB Occupancy at Mispredict: 64.3697

Branch types
NOT_BRANCH: 39423757 78.8475%
BRANCH_DIRECT_JUMP: 551642 1.10328%
BRANCH_INDIRECT: 139368 0.278736%
BRANCH_CONDITIONAL: 7920859 15.8417%
BRANCH_DIRECT_CALL: 776072 1.55214%
BRANCH_INDIRECT_CALL: 194644 0.389288%
BRANCH_RETURN: 993311 1.98662%
BRANCH_OTHER: 0 0%

