Initialize SIGNATURE TABLE
ST_SET: 1
ST_WAY: 256
ST_TAG_BIT: 16
ST_TAG_MASK: ffff

Initialize PATTERN TABLE
PT_SET: 512
PT_WAY: 4
SIG_DELTA_BIT: 7
C_SIG_BIT: 4
C_DELTA_BIT: 4

Initialize PREFETCH FILTER
FILTER_SET: 1024
MANA initialize 
tds: 2 tdm: 4
size MANA SINGLE: 74 KB
size MANA NULTIPLE: 43 KB
size HOBPT: 5 KB
size SRQ: 0.14502 KB
size SABs: 0.290039 KB
size prefetch queue: 0.453125 KB
total: 122.888 KB

*** ChampSim Multicore Out-of-Order Simulator ***

Warmup Instructions: 50000000
Simulation Instructions: 50000000
Number of CPUs: 1
LLC sets: 2048
LLC ways: 16
Off-chip DRAM Size: 4096 MB Channels: 1 Width: 64-bit Data Rate: 3200 MT/s

CPU 0 runs /home/mbaradaran/ChampSim/dpc3_traces/server_011.champsimtrace.xz
CPU 0 L1D next line prefetcher
Heartbeat CPU 0 instructions: 10000002 cycles: 3208004 heartbeat IPC: 3.1172 cumulative IPC: 3.1172 (Simulation time: 0 hr 1 min 49 sec) 
Heartbeat CPU 0 instructions: 20000001 cycles: 6419991 heartbeat IPC: 3.11334 cumulative IPC: 3.11527 (Simulation time: 0 hr 3 min 37 sec) 
Heartbeat CPU 0 instructions: 30000001 cycles: 9676688 heartbeat IPC: 3.0706 cumulative IPC: 3.10023 (Simulation time: 0 hr 5 min 19 sec) 
Heartbeat CPU 0 instructions: 40000003 cycles: 12880965 heartbeat IPC: 3.12083 cumulative IPC: 3.10536 (Simulation time: 0 hr 7 min 4 sec) 
Heartbeat CPU 0 instructions: 50000000 cycles: 16091682 heartbeat IPC: 3.11457 cumulative IPC: 3.1072 (Simulation time: 0 hr 8 min 52 sec) 

Warmup complete CPU 0 instructions: 50000004 cycles: 16091683 (Simulation time: 0 hr 8 min 52 sec) 

Heartbeat CPU 0 instructions: 60000002 cycles: 23681422 heartbeat IPC: 1.31757 cumulative IPC: 1.31757 (Simulation time: 0 hr 10 min 29 sec) 
Heartbeat CPU 0 instructions: 70000001 cycles: 31703219 heartbeat IPC: 1.2466 cumulative IPC: 1.2811 (Simulation time: 0 hr 12 min 6 sec) 
Heartbeat CPU 0 instructions: 80000003 cycles: 40538557 heartbeat IPC: 1.13182 cumulative IPC: 1.22715 (Simulation time: 0 hr 13 min 35 sec) 
Heartbeat CPU 0 instructions: 90000001 cycles: 48350560 heartbeat IPC: 1.28008 cumulative IPC: 1.23997 (Simulation time: 0 hr 15 min 12 sec) 
Heartbeat CPU 0 instructions: 100000002 cycles: 55942473 heartbeat IPC: 1.31719 cumulative IPC: 1.25468 (Simulation time: 0 hr 16 min 46 sec) 
Finished CPU 0 instructions: 50000002 cycles: 39850791 cumulative IPC: 1.25468 (Simulation time: 0 hr 16 min 46 sec) 

ChampSim completed all CPUs

Region of Interest Statistics

CPU 0 cumulative IPC: 1.25468 instructions: 50000002 cycles: 39850791

SHEET
IPC : 1.25468

L1D TOTAL     ACCESS:   18255150  HIT:   17223831  MISS:    1031319
L1D LOAD      ACCESS:    6827943  HIT:    6347236  MISS:     480707
L1D RFO       ACCESS:    4836550  HIT:    4754546  MISS:      82004
L1D PREFETCH  ACCESS:    6590657  HIT:    6122049  MISS:     468608
L1D WRITEBACK ACCESS:          0  HIT:          0  MISS:          0
L1D PREFETCH  REQUESTED:    6865715  ISSUED:    6772953  USEFUL:     138207  USELESS:     330395
L1D AVERAGE MISS LATENCY: 41.5272 cycles
L1D

SHEET
L1D-total_access : 18255150
L1D-total_hit : 17223831
L1D-total_miss : 1031319
L1D-load_access : 6827943
L1D-load_hit : 6347236
L1D-load_miss : 480707
L1D-rfo_access : 4836550
L1D-rfo_hit : 4754546
L1D-rfo_miss : 82004
L1D-prefetch_access : 6590657
L1D-prefetch_hit : 6122049
L1D-prefetch_miss : 468608
L1D-writeback_access : 0
L1D-writeback_hit : 0
L1D-writeback_miss : 0
L1D-prefetch_requested : 6865715
L1D-prefetch_issued : 6772953
L1D-prefetch_useful : 138207
L1D-prefetch_useless : 330395
L1D-Avg_miss_latency : 41.5272
L1D-Morteza_fill_l2_prefetches : 0

L1I TOTAL     ACCESS:   15872181  HIT:   13890490  MISS:    1981691
L1I LOAD      ACCESS:    8853765  HIT:    8606361  MISS:     247404
L1I RFO       ACCESS:          0  HIT:          0  MISS:          0
L1I PREFETCH  ACCESS:    7018416  HIT:    5284129  MISS:    1734287
L1I WRITEBACK ACCESS:          0  HIT:          0  MISS:          0
L1I PREFETCH  REQUESTED:    7876730  ISSUED:    7397570  USEFUL:    1044320  USELESS:     690012
L1I AVERAGE MISS LATENCY: 30.6932 cycles
L1I

SHEET
L1I-total_access : 15872181
L1I-total_hit : 13890490
L1I-total_miss : 1981691
L1I-load_access : 8853765
L1I-load_hit : 8606361
L1I-load_miss : 247404
L1I-rfo_access : 0
L1I-rfo_hit : 0
L1I-rfo_miss : 0
L1I-prefetch_access : 7018416
L1I-prefetch_hit : 5284129
L1I-prefetch_miss : 1734287
L1I-writeback_access : 0
L1I-writeback_hit : 0
L1I-writeback_miss : 0
L1I-prefetch_requested : 7876730
L1I-prefetch_issued : 7397570
L1I-prefetch_useful : 1044320
L1I-prefetch_useless : 690012
L1I-Avg_miss_latency : 30.6932
L1I-Morteza_fill_l2_prefetches : 0

L2C TOTAL     ACCESS:    3865570  HIT:    2686284  MISS:    1179286
L2C LOAD      ACCESS:     636993  HIT:     356643  MISS:     280350
L2C RFO       ACCESS:      80195  HIT:      33431  MISS:      46764
L2C PREFETCH  ACCESS:    2880264  HIT:    2030112  MISS:     850152
L2C WRITEBACK ACCESS:     268118  HIT:     266098  MISS:       2020
L2C PREFETCH  REQUESTED:    3574960  ISSUED:    3571074  USEFUL:      48311  USELESS:     801444
L2C AVERAGE MISS LATENCY: 52.4329 cycles
L2C

SHEET
L2C-total_access : 3865570
L2C-total_hit : 2686284
L2C-total_miss : 1179286
L2C-load_access : 636993
L2C-load_hit : 356643
L2C-load_miss : 280350
L2C-rfo_access : 80195
L2C-rfo_hit : 33431
L2C-rfo_miss : 46764
L2C-prefetch_access : 2880264
L2C-prefetch_hit : 2030112
L2C-prefetch_miss : 850152
L2C-writeback_access : 268118
L2C-writeback_hit : 266098
L2C-writeback_miss : 2020
L2C-prefetch_requested : 3574960
L2C-prefetch_issued : 3571074
L2C-prefetch_useful : 48311
L2C-prefetch_useless : 801444
L2C-Avg_miss_latency : 52.4329
L2C-Morteza_fill_l2_prefetches : 592381

LLC TOTAL     ACCESS:    2276078  HIT:    2084304  MISS:     191774
LLC LOAD      ACCESS:     280054  HIT:     249993  MISS:      30061
LLC RFO       ACCESS:      46756  HIT:      32803  MISS:      13953
LLC PREFETCH  ACCESS:    1793645  HIT:    1646297  MISS:     147348
LLC WRITEBACK ACCESS:     155623  HIT:     155211  MISS:        412
LLC PREFETCH  REQUESTED:          0  ISSUED:          0  USEFUL:      16995  USELESS:     127481
LLC AVERAGE MISS LATENCY: 178.473 cycles
LLC

SHEET
LLC-total_access : 2276078
LLC-total_hit : 2084304
LLC-total_miss : 191774
LLC-load_access : 280054
LLC-load_hit : 249993
LLC-load_miss : 30061
LLC-rfo_access : 46756
LLC-rfo_hit : 32803
LLC-rfo_miss : 13953
LLC-prefetch_access : 1793645
LLC-prefetch_hit : 1646297
LLC-prefetch_miss : 147348
LLC-writeback_access : 155623
LLC-writeback_hit : 155211
LLC-writeback_miss : 412
LLC-prefetch_requested : 0
LLC-prefetch_issued : 0
LLC-prefetch_useful : 16995
LLC-prefetch_useless : 127481
LLC-Avg_miss_latency : 178.473
LLC-Morteza_fill_l2_prefetches : 937356

Major fault: 0 Minor fault: 7035



Printing Logs
statHeadFound: 474045
statHeadMissing: 541643
statStreamBufferHit: 11304407
statPrefetchEntryFound: 4077904
statCompactorMatch: 10509562
statStreamTrackerLookup: 12320095
statRecord: 1810533
statGetPointer: 1015688
statEnqueuePrefetch: 14410810
statPrefetchQueueIsFull: 30747
StreamBufferHitRate: 0.917558
Regions' size: 7760
next_region_correct: 1453088
next_region_wrong: 349667
next_region_correct_prediction: 0.806037
statStreamBufferLookups: 887046840
statL1iLookups: 115286480
statCompactorLookups: 443523420
morteza: start

SHEET
mana_table_access_counter : 2927670
mana_table_multiple_access_counter : 3480577
hobp_table_access_counter : 19501306
sab_access_counter : 15382311
srq_access_counter : 12628609

morteza: end
CPU 0 L1D next line prefetcher final stats

DRAM Statistics
 CHANNEL 0
 RQ ROW_BUFFER_HIT:      35726  ROW_BUFFER_MISS:     155623
 DBUS_CONGESTED:      88088
 WQ ROW_BUFFER_HIT:      12077  ROW_BUFFER_MISS:      50534  FULL:          0

 AVG_CONGESTED_CYCLE: 5

CPU 0 Branch Prediction Accuracy: 97.5565% MPKI: 4.59006 Average ROB Occupancy at Mispredict: 59.4745

Branch types
NOT_BRANCH: 40607196 81.2144%
BRANCH_DIRECT_JUMP: 451601 0.903202%
BRANCH_INDIRECT: 151580 0.30316%
BRANCH_CONDITIONAL: 7041635 14.0833%
BRANCH_DIRECT_CALL: 647826 1.29565%
BRANCH_INDIRECT_CALL: 211373 0.422746%
BRANCH_RETURN: 888438 1.77688%
BRANCH_OTHER: 0 0%

