Initialize SIGNATURE TABLE
ST_SET: 1
ST_WAY: 256
ST_TAG_BIT: 16
ST_TAG_MASK: ffff

Initialize PATTERN TABLE
PT_SET: 512
PT_WAY: 4
SIG_DELTA_BIT: 7
C_SIG_BIT: 4
C_DELTA_BIT: 4

Initialize PREFETCH FILTER
FILTER_SET: 1024
MANA initialize 
tds: 2 tdm: 4
size MANA SINGLE: 74 KB
size MANA NULTIPLE: 43 KB
size HOBPT: 5 KB
size SRQ: 0.14502 KB
size SABs: 0.290039 KB
size prefetch queue: 0.453125 KB
total: 122.888 KB

*** ChampSim Multicore Out-of-Order Simulator ***

Warmup Instructions: 50000000
Simulation Instructions: 50000000
Number of CPUs: 1
LLC sets: 2048
LLC ways: 16
Off-chip DRAM Size: 4096 MB Channels: 1 Width: 64-bit Data Rate: 3200 MT/s

CPU 0 runs /home/mbaradaran/ChampSim/dpc3_traces/server_018.champsimtrace.xz
CPU 0 L1D next line prefetcher
Heartbeat CPU 0 instructions: 10000003 cycles: 3617758 heartbeat IPC: 2.76414 cumulative IPC: 2.76414 (Simulation time: 0 hr 1 min 53 sec) 
Heartbeat CPU 0 instructions: 20000001 cycles: 7240211 heartbeat IPC: 2.76056 cumulative IPC: 2.76235 (Simulation time: 0 hr 3 min 47 sec) 
Heartbeat CPU 0 instructions: 30000003 cycles: 10716073 heartbeat IPC: 2.87698 cumulative IPC: 2.79953 (Simulation time: 0 hr 5 min 31 sec) 
Heartbeat CPU 0 instructions: 40000000 cycles: 14228765 heartbeat IPC: 2.84682 cumulative IPC: 2.81121 (Simulation time: 0 hr 7 min 23 sec) 
Heartbeat CPU 0 instructions: 50000003 cycles: 17847183 heartbeat IPC: 2.76364 cumulative IPC: 2.80156 (Simulation time: 0 hr 9 min 21 sec) 

Warmup complete CPU 0 instructions: 50000003 cycles: 17847183 (Simulation time: 0 hr 9 min 21 sec) 

Heartbeat CPU 0 instructions: 60000000 cycles: 35524281 heartbeat IPC: 0.565704 cumulative IPC: 0.565704 (Simulation time: 0 hr 12 min 2 sec) 
Heartbeat CPU 0 instructions: 70000001 cycles: 53268063 heartbeat IPC: 0.563578 cumulative IPC: 0.564639 (Simulation time: 0 hr 14 min 34 sec) 
Heartbeat CPU 0 instructions: 80000000 cycles: 70933222 heartbeat IPC: 0.566086 cumulative IPC: 0.56512 (Simulation time: 0 hr 17 min 13 sec) 
Heartbeat CPU 0 instructions: 90000002 cycles: 88706883 heartbeat IPC: 0.56263 cumulative IPC: 0.564496 (Simulation time: 0 hr 19 min 56 sec) 
Heartbeat CPU 0 instructions: 100000001 cycles: 106431537 heartbeat IPC: 0.564186 cumulative IPC: 0.564434 (Simulation time: 0 hr 22 min 36 sec) 
Finished CPU 0 instructions: 50000002 cycles: 88584355 cumulative IPC: 0.564434 (Simulation time: 0 hr 22 min 36 sec) 

ChampSim completed all CPUs

Region of Interest Statistics

CPU 0 cumulative IPC: 0.564434 instructions: 50000002 cycles: 88584355

SHEET
IPC : 0.564434

L1D TOTAL     ACCESS:   18645514  HIT:   16427858  MISS:    2217656
L1D LOAD      ACCESS:    7052744  HIT:    6323642  MISS:     729102
L1D RFO       ACCESS:    5819092  HIT:    4866908  MISS:     952184
L1D PREFETCH  ACCESS:    5773678  HIT:    5237308  MISS:     536370
L1D WRITEBACK ACCESS:          0  HIT:          0  MISS:          0
L1D PREFETCH  REQUESTED:    7093495  ISSUED:    6889831  USEFUL:     196652  USELESS:     339807
L1D AVERAGE MISS LATENCY: 174.859 cycles
L1D

SHEET
L1D-total_access : 18645514
L1D-total_hit : 16427858
L1D-total_miss : 2217656
L1D-load_access : 7052744
L1D-load_hit : 6323642
L1D-load_miss : 729102
L1D-rfo_access : 5819092
L1D-rfo_hit : 4866908
L1D-rfo_miss : 952184
L1D-prefetch_access : 5773678
L1D-prefetch_hit : 5237308
L1D-prefetch_miss : 536370
L1D-writeback_access : 0
L1D-writeback_hit : 0
L1D-writeback_miss : 0
L1D-prefetch_requested : 7093495
L1D-prefetch_issued : 6889831
L1D-prefetch_useful : 196652
L1D-prefetch_useless : 339807
L1D-Avg_miss_latency : 174.859
L1D-Morteza_fill_l2_prefetches : 0

L1I TOTAL     ACCESS:   15950442  HIT:   13504184  MISS:    2446258
L1I LOAD      ACCESS:   10078085  HIT:    9953287  MISS:     124798
L1I RFO       ACCESS:          0  HIT:          0  MISS:          0
L1I PREFETCH  ACCESS:    5872357  HIT:    3550897  MISS:    2321460
L1I WRITEBACK ACCESS:          0  HIT:          0  MISS:          0
L1I PREFETCH  REQUESTED:    6087253  ISSUED:    6057094  USEFUL:    2252267  USELESS:      69189
L1I AVERAGE MISS LATENCY: 17.9262 cycles
L1I

SHEET
L1I-total_access : 15950442
L1I-total_hit : 13504184
L1I-total_miss : 2446258
L1I-load_access : 10078085
L1I-load_hit : 9953287
L1I-load_miss : 124798
L1I-rfo_access : 0
L1I-rfo_hit : 0
L1I-rfo_miss : 0
L1I-prefetch_access : 5872357
L1I-prefetch_hit : 3550897
L1I-prefetch_miss : 2321460
L1I-writeback_access : 0
L1I-writeback_hit : 0
L1I-writeback_miss : 0
L1I-prefetch_requested : 6087253
L1I-prefetch_issued : 6057094
L1I-prefetch_useful : 2252267
L1I-prefetch_useless : 69189
L1I-Avg_miss_latency : 17.9262
L1I-Morteza_fill_l2_prefetches : 0

L2C TOTAL     ACCESS:    6745387  HIT:    4877682  MISS:    1867705
L2C LOAD      ACCESS:     577490  HIT:     307421  MISS:     270069
L2C RFO       ACCESS:     951718  HIT:      19868  MISS:     931850
L2C PREFETCH  ACCESS:    4046155  HIT:    3384513  MISS:     661642
L2C WRITEBACK ACCESS:    1170024  HIT:    1165880  MISS:       4144
L2C PREFETCH  REQUESTED:    3970687  ISSUED:    3966731  USEFUL:      28120  USELESS:     634251
L2C AVERAGE MISS LATENCY: 213.398 cycles
L2C

SHEET
L2C-total_access : 6745387
L2C-total_hit : 4877682
L2C-total_miss : 1867705
L2C-load_access : 577490
L2C-load_hit : 307421
L2C-load_miss : 270069
L2C-rfo_access : 951718
L2C-rfo_hit : 19868
L2C-rfo_miss : 931850
L2C-prefetch_access : 4046155
L2C-prefetch_hit : 3384513
L2C-prefetch_miss : 661642
L2C-writeback_access : 1170024
L2C-writeback_hit : 1165880
L2C-writeback_miss : 4144
L2C-prefetch_requested : 3970687
L2C-prefetch_issued : 3966731
L2C-prefetch_useful : 28120
L2C-prefetch_useless : 634251
L2C-Avg_miss_latency : 213.398
L2C-Morteza_fill_l2_prefetches : 931541

LLC TOTAL     ACCESS:    4047890  HIT:    2607424  MISS:    1440466
LLC LOAD      ACCESS:     269968  HIT:     171734  MISS:      98234
LLC RFO       ACCESS:     931848  HIT:     136011  MISS:     795837
LLC PREFETCH  ACCESS:    1742970  HIT:    1198655  MISS:     544315
LLC WRITEBACK ACCESS:    1103104  HIT:    1101024  MISS:       2080
LLC PREFETCH  REQUESTED:          0  ISSUED:          0  USEFUL:      29908  USELESS:     514825
LLC AVERAGE MISS LATENCY: 277.368 cycles
LLC

SHEET
LLC-total_access : 4047890
LLC-total_hit : 2607424
LLC-total_miss : 1440466
LLC-load_access : 269968
LLC-load_hit : 171734
LLC-load_miss : 98234
LLC-rfo_access : 931848
LLC-rfo_hit : 136011
LLC-rfo_miss : 795837
LLC-prefetch_access : 1742970
LLC-prefetch_hit : 1198655
LLC-prefetch_miss : 544315
LLC-writeback_access : 1103104
LLC-writeback_hit : 1101024
LLC-writeback_miss : 2080
LLC-prefetch_requested : 0
LLC-prefetch_issued : 0
LLC-prefetch_useful : 29908
LLC-prefetch_useless : 514825
LLC-Avg_miss_latency : 277.368
LLC-Morteza_fill_l2_prefetches : 869987

Major fault: 0 Minor fault: 22493



Printing Logs
statHeadFound: 260313
statHeadMissing: 1237413
statStreamBufferHit: 11696528
statPrefetchEntryFound: 3709107
statCompactorMatch: 10965658
statStreamTrackerLookup: 13194254
statRecord: 2228596
statGetPointer: 1497726
statEnqueuePrefetch: 11503712
statPrefetchQueueIsFull: 7
StreamBufferHitRate: 0.886486
Regions' size: 1291
next_region_correct: 1889968
next_region_wrong: 337319
next_region_correct_prediction: 0.848552
statStreamBufferLookups: 949986288
statL1iLookups: 92029696
statCompactorLookups: 474993144
morteza: start

SHEET
mana_table_access_counter : 4107008
mana_table_multiple_access_counter : 2092290
hobp_table_access_counter : 24607404
sab_access_counter : 15405635
srq_access_counter : 14337745

morteza: end
CPU 0 L1D next line prefetcher final stats

DRAM Statistics
 CHANNEL 0
 RQ ROW_BUFFER_HIT:     404573  ROW_BUFFER_MISS:    1033579
 DBUS_CONGESTED:    1437674
 WQ ROW_BUFFER_HIT:     267394  ROW_BUFFER_MISS:     627146  FULL:          0

 AVG_CONGESTED_CYCLE: 6

CPU 0 Branch Prediction Accuracy: 99.7114% MPKI: 0.47678 Average ROB Occupancy at Mispredict: 208.965

Branch types
NOT_BRANCH: 41741008 83.482%
BRANCH_DIRECT_JUMP: 458652 0.917304%
BRANCH_INDIRECT: 48282 0.096564%
BRANCH_CONDITIONAL: 5930881 11.8618%
BRANCH_DIRECT_CALL: 744230 1.48846%
BRANCH_INDIRECT_CALL: 166336 0.332672%
BRANCH_RETURN: 910589 1.82118%
BRANCH_OTHER: 0 0%

