Initialize SIGNATURE TABLE
ST_SET: 1
ST_WAY: 256
ST_TAG_BIT: 16
ST_TAG_MASK: ffff

Initialize PATTERN TABLE
PT_SET: 512
PT_WAY: 4
SIG_DELTA_BIT: 7
C_SIG_BIT: 4
C_DELTA_BIT: 4

Initialize PREFETCH FILTER
FILTER_SET: 1024
MANA initialize 
tds: 2 tdm: 4
size MANA SINGLE: 74 KB
size MANA NULTIPLE: 43 KB
size HOBPT: 5 KB
size SRQ: 0.14502 KB
size SABs: 0.290039 KB
size prefetch queue: 0.453125 KB
total: 122.888 KB

*** ChampSim Multicore Out-of-Order Simulator ***

Warmup Instructions: 50000000
Simulation Instructions: 50000000
Number of CPUs: 1
LLC sets: 2048
LLC ways: 16
Off-chip DRAM Size: 4096 MB Channels: 1 Width: 64-bit Data Rate: 3200 MT/s

CPU 0 runs /home/mbaradaran/ChampSim/dpc3_traces/spec_gcc_001.champsimtrace.xz
CPU 0 L1D next line prefetcher
Heartbeat CPU 0 instructions: 10000003 cycles: 3219874 heartbeat IPC: 3.10571 cumulative IPC: 3.10571 (Simulation time: 0 hr 1 min 33 sec) 
Heartbeat CPU 0 instructions: 20000002 cycles: 6465104 heartbeat IPC: 3.08145 cumulative IPC: 3.09353 (Simulation time: 0 hr 3 min 14 sec) 
Heartbeat CPU 0 instructions: 30000000 cycles: 9667850 heartbeat IPC: 3.12232 cumulative IPC: 3.10307 (Simulation time: 0 hr 4 min 24 sec) 
Heartbeat CPU 0 instructions: 40000001 cycles: 12909242 heartbeat IPC: 3.08509 cumulative IPC: 3.09856 (Simulation time: 0 hr 5 min 34 sec) 
Heartbeat CPU 0 instructions: 50000001 cycles: 16150427 heartbeat IPC: 3.08529 cumulative IPC: 3.09589 (Simulation time: 0 hr 6 min 48 sec) 

Warmup complete CPU 0 instructions: 50000001 cycles: 16150427 (Simulation time: 0 hr 6 min 48 sec) 

Heartbeat CPU 0 instructions: 60000000 cycles: 23914658 heartbeat IPC: 1.28796 cumulative IPC: 1.28796 (Simulation time: 0 hr 7 min 54 sec) 
Heartbeat CPU 0 instructions: 70000002 cycles: 31791207 heartbeat IPC: 1.26959 cumulative IPC: 1.27871 (Simulation time: 0 hr 9 min 1 sec) 
Heartbeat CPU 0 instructions: 80000000 cycles: 39350824 heartbeat IPC: 1.32282 cumulative IPC: 1.29308 (Simulation time: 0 hr 10 min 5 sec) 
Heartbeat CPU 0 instructions: 90000003 cycles: 47200112 heartbeat IPC: 1.274 cumulative IPC: 1.28826 (Simulation time: 0 hr 11 min 9 sec) 
Heartbeat CPU 0 instructions: 100000000 cycles: 55350876 heartbeat IPC: 1.22688 cumulative IPC: 1.2755 (Simulation time: 0 hr 12 min 15 sec) 
Finished CPU 0 instructions: 50000000 cycles: 39200453 cumulative IPC: 1.2755 (Simulation time: 0 hr 12 min 15 sec) 

ChampSim completed all CPUs

Region of Interest Statistics

CPU 0 cumulative IPC: 1.2755 instructions: 50000000 cycles: 39200453

SHEET
IPC : 1.2755

L1D TOTAL     ACCESS:   19329376  HIT:   18224226  MISS:    1105150
L1D LOAD      ACCESS:    7235757  HIT:    6756164  MISS:     479593
L1D RFO       ACCESS:    5116757  HIT:    5037103  MISS:      79654
L1D PREFETCH  ACCESS:    6976862  HIT:    6430959  MISS:     545903
L1D WRITEBACK ACCESS:          0  HIT:          0  MISS:          0
L1D PREFETCH  REQUESTED:    7279785  ISSUED:    7181909  USEFUL:     275688  USELESS:     270228
L1D AVERAGE MISS LATENCY: 26.0195 cycles
L1D

SHEET
L1D-total_access : 19329376
L1D-total_hit : 18224226
L1D-total_miss : 1105150
L1D-load_access : 7235757
L1D-load_hit : 6756164
L1D-load_miss : 479593
L1D-rfo_access : 5116757
L1D-rfo_hit : 5037103
L1D-rfo_miss : 79654
L1D-prefetch_access : 6976862
L1D-prefetch_hit : 6430959
L1D-prefetch_miss : 545903
L1D-writeback_access : 0
L1D-writeback_hit : 0
L1D-writeback_miss : 0
L1D-prefetch_requested : 7279785
L1D-prefetch_issued : 7181909
L1D-prefetch_useful : 275688
L1D-prefetch_useless : 270228
L1D-Avg_miss_latency : 26.0195
L1D-Morteza_fill_l2_prefetches : 0

L1I TOTAL     ACCESS:   17331796  HIT:   16843016  MISS:     488780
L1I LOAD      ACCESS:    9275923  HIT:    9191219  MISS:      84704
L1I RFO       ACCESS:          0  HIT:          0  MISS:          0
L1I PREFETCH  ACCESS:    8055873  HIT:    7651797  MISS:     404076
L1I WRITEBACK ACCESS:          0  HIT:          0  MISS:          0
L1I PREFETCH  REQUESTED:    8765986  ISSUED:    8520199  USEFUL:     226337  USELESS:     177661
L1I AVERAGE MISS LATENCY: 23.4003 cycles
L1I

SHEET
L1I-total_access : 17331796
L1I-total_hit : 16843016
L1I-total_miss : 488780
L1I-load_access : 9275923
L1I-load_hit : 9191219
L1I-load_miss : 84704
L1I-rfo_access : 0
L1I-rfo_hit : 0
L1I-rfo_miss : 0
L1I-prefetch_access : 8055873
L1I-prefetch_hit : 7651797
L1I-prefetch_miss : 404076
L1I-writeback_access : 0
L1I-writeback_hit : 0
L1I-writeback_miss : 0
L1I-prefetch_requested : 8765986
L1I-prefetch_issued : 8520199
L1I-prefetch_useful : 226337
L1I-prefetch_useless : 177661
L1I-Avg_miss_latency : 23.4003
L1I-Morteza_fill_l2_prefetches : 0

L2C TOTAL     ACCESS:    2672772  HIT:    2399876  MISS:     272896
L2C LOAD      ACCESS:     523591  HIT:     439275  MISS:      84316
L2C RFO       ACCESS:      74989  HIT:      35650  MISS:      39339
L2C PREFETCH  ACCESS:    1820431  HIT:    1671626  MISS:     148805
L2C WRITEBACK ACCESS:     253761  HIT:     253325  MISS:        436
L2C PREFETCH  REQUESTED:    1848359  ISSUED:    1848134  USEFUL:      33764  USELESS:     114250
L2C AVERAGE MISS LATENCY: 65.2631 cycles
L2C

SHEET
L2C-total_access : 2672772
L2C-total_hit : 2399876
L2C-total_miss : 272896
L2C-load_access : 523591
L2C-load_hit : 439275
L2C-load_miss : 84316
L2C-rfo_access : 74989
L2C-rfo_hit : 35650
L2C-rfo_miss : 39339
L2C-prefetch_access : 1820431
L2C-prefetch_hit : 1671626
L2C-prefetch_miss : 148805
L2C-writeback_access : 253761
L2C-writeback_hit : 253325
L2C-writeback_miss : 436
L2C-prefetch_requested : 1848359
L2C-prefetch_issued : 1848134
L2C-prefetch_useful : 33764
L2C-prefetch_useless : 114250
L2C-Avg_miss_latency : 65.2631
L2C-Morteza_fill_l2_prefetches : 832865

LLC TOTAL     ACCESS:     697087  HIT:     619693  MISS:      77394
LLC LOAD      ACCESS:      84094  HIT:      74590  MISS:       9504
LLC RFO       ACCESS:      39337  HIT:      18209  MISS:      21128
LLC PREFETCH  ACCESS:     478907  HIT:     433263  MISS:      45644
LLC WRITEBACK ACCESS:      94749  HIT:      93631  MISS:       1118
LLC PREFETCH  REQUESTED:          0  ISSUED:          0  USEFUL:      12266  USELESS:      33887
LLC AVERAGE MISS LATENCY: 194.751 cycles
LLC

SHEET
LLC-total_access : 697087
LLC-total_hit : 619693
LLC-total_miss : 77394
LLC-load_access : 84094
LLC-load_hit : 74590
LLC-load_miss : 9504
LLC-rfo_access : 39337
LLC-rfo_hit : 18209
LLC-rfo_miss : 21128
LLC-prefetch_access : 478907
LLC-prefetch_hit : 433263
LLC-prefetch_miss : 45644
LLC-writeback_access : 94749
LLC-writeback_hit : 93631
LLC-writeback_miss : 1118
LLC-prefetch_requested : 0
LLC-prefetch_issued : 0
LLC-prefetch_useful : 12266
LLC-prefetch_useless : 33887
LLC-Avg_miss_latency : 194.751
LLC-Morteza_fill_l2_prefetches : 308551

Major fault: 0 Minor fault: 6984



Printing Logs
statHeadFound: 872939
statHeadMissing: 1123843
statStreamBufferHit: 13221961
statPrefetchEntryFound: 5490618
statCompactorMatch: 13802970
statStreamTrackerLookup: 15218743
statRecord: 1415773
statGetPointer: 1996782
statEnqueuePrefetch: 17703206
statPrefetchQueueIsFull: 99237
StreamBufferHitRate: 0.868795
Regions' size: 11652
next_region_correct: 905710
next_region_wrong: 498393
next_region_correct_prediction: 0.645045
statStreamBufferLookups: 1095749496
statL1iLookups: 141625648
statCompactorLookups: 547874748
morteza: start

SHEET
mana_table_access_counter : 2307844
mana_table_multiple_access_counter : 5613491
hobp_table_access_counter : 27298448
sab_access_counter : 18712579
srq_access_counter : 13732775

morteza: end
CPU 0 L1D next line prefetcher final stats

DRAM Statistics
 CHANNEL 0
 RQ ROW_BUFFER_HIT:      20408  ROW_BUFFER_MISS:      55866
 DBUS_CONGESTED:      42130
 WQ ROW_BUFFER_HIT:       4292  ROW_BUFFER_MISS:      24570  FULL:          0

 AVG_CONGESTED_CYCLE: 6

CPU 0 Branch Prediction Accuracy: 95.8872% MPKI: 9.67286 Average ROB Occupancy at Mispredict: 66.9856

Branch types
NOT_BRANCH: 38240102 76.4802%
BRANCH_DIRECT_JUMP: 653296 1.30659%
BRANCH_INDIRECT: 37098 0.074196%
BRANCH_CONDITIONAL: 8897819 17.7956%
BRANCH_DIRECT_CALL: 992620 1.98524%
BRANCH_INDIRECT_CALL: 93046 0.186092%
BRANCH_RETURN: 1085674 2.17135%
BRANCH_OTHER: 0 0%

