Initialize SIGNATURE TABLE
ST_SET: 1
ST_WAY: 256
ST_TAG_BIT: 16
ST_TAG_MASK: ffff

Initialize PATTERN TABLE
PT_SET: 512
PT_WAY: 4
SIG_DELTA_BIT: 7
C_SIG_BIT: 4
C_DELTA_BIT: 4

Initialize PREFETCH FILTER
FILTER_SET: 1024

*** ChampSim Multicore Out-of-Order Simulator ***

Warmup Instructions: 50000000
Simulation Instructions: 50000000
Number of CPUs: 1
LLC sets: 2048
LLC ways: 16
Off-chip DRAM Size: 4096 MB Channels: 1 Width: 64-bit Data Rate: 3200 MT/s

CPU 0 runs /home/mbaradaran/ChampSim/dpc3_traces/client_003.champsimtrace.xz
CPU 0 L1I next line prefetcher
CPU 0 L1D next line prefetcher
Heartbeat CPU 0 instructions: 10000000 cycles: 3478232 heartbeat IPC: 2.87502 cumulative IPC: 2.87502 (Simulation time: 0 hr 1 min 33 sec) 
Heartbeat CPU 0 instructions: 20000002 cycles: 6932306 heartbeat IPC: 2.89513 cumulative IPC: 2.88504 (Simulation time: 0 hr 3 min 12 sec) 
Heartbeat CPU 0 instructions: 30000003 cycles: 10493159 heartbeat IPC: 2.80832 cumulative IPC: 2.85901 (Simulation time: 0 hr 5 min 0 sec) 
Heartbeat CPU 0 instructions: 40000001 cycles: 14109557 heartbeat IPC: 2.76518 cumulative IPC: 2.83496 (Simulation time: 0 hr 6 min 46 sec) 
Heartbeat CPU 0 instructions: 50000003 cycles: 17654658 heartbeat IPC: 2.82079 cumulative IPC: 2.83211 (Simulation time: 0 hr 8 min 28 sec) 

Warmup complete CPU 0 instructions: 50000003 cycles: 17654658 (Simulation time: 0 hr 8 min 28 sec) 

Heartbeat CPU 0 instructions: 60000002 cycles: 23958794 heartbeat IPC: 1.58626 cumulative IPC: 1.58626 (Simulation time: 0 hr 9 min 57 sec) 
Heartbeat CPU 0 instructions: 70000001 cycles: 30042209 heartbeat IPC: 1.64381 cumulative IPC: 1.61452 (Simulation time: 0 hr 11 min 28 sec) 
Heartbeat CPU 0 instructions: 80000001 cycles: 36902120 heartbeat IPC: 1.45774 cumulative IPC: 1.55865 (Simulation time: 0 hr 13 min 0 sec) 
Heartbeat CPU 0 instructions: 90000000 cycles: 45898931 heartbeat IPC: 1.1115 cumulative IPC: 1.41622 (Simulation time: 0 hr 14 min 15 sec) 
Heartbeat CPU 0 instructions: 100000003 cycles: 56798163 heartbeat IPC: 0.917496 cumulative IPC: 1.27735 (Simulation time: 0 hr 15 min 44 sec) 
Finished CPU 0 instructions: 50000000 cycles: 39143505 cumulative IPC: 1.27735 (Simulation time: 0 hr 15 min 44 sec) 

ChampSim completed all CPUs

Region of Interest Statistics

CPU 0 cumulative IPC: 1.27735 instructions: 50000000 cycles: 39143505

SHEET
IPC : 1.27735

L1D TOTAL     ACCESS:   17657642  HIT:   17161631  MISS:     496011
L1D LOAD      ACCESS:    6048506  HIT:    5921910  MISS:     126596
L1D RFO       ACCESS:    5949185  HIT:    5714855  MISS:     234330
L1D PREFETCH  ACCESS:    5659951  HIT:    5524866  MISS:     135085
L1D WRITEBACK ACCESS:          0  HIT:          0  MISS:          0
L1D PREFETCH  REQUESTED:    6089973  ISSUED:    5948779  USEFUL:      67108  USELESS:      68026
L1D AVERAGE MISS LATENCY: 123.02 cycles
L1D

SHEET
L1D-total_access : 17657642
L1D-total_hit : 17161631
L1D-total_miss : 496011
L1D-load_access : 6048506
L1D-load_hit : 5921910
L1D-load_miss : 126596
L1D-rfo_access : 5949185
L1D-rfo_hit : 5714855
L1D-rfo_miss : 234330
L1D-prefetch_access : 5659951
L1D-prefetch_hit : 5524866
L1D-prefetch_miss : 135085
L1D-writeback_access : 0
L1D-writeback_hit : 0
L1D-writeback_miss : 0
L1D-prefetch_requested : 6089973
L1D-prefetch_issued : 5948779
L1D-prefetch_useful : 67108
L1D-prefetch_useless : 68026
L1D-Avg_miss_latency : 123.02

L1I TOTAL     ACCESS:   11426391  HIT:   10656953  MISS:     769438
L1I LOAD      ACCESS:    9446967  HIT:    9326179  MISS:     120788
L1I RFO       ACCESS:          0  HIT:          0  MISS:          0
L1I PREFETCH  ACCESS:    1979424  HIT:    1330774  MISS:     648650
L1I WRITEBACK ACCESS:          0  HIT:          0  MISS:          0
L1I PREFETCH  REQUESTED:    2054241  ISSUED:    2054237  USEFUL:     420354  USELESS:     228319
L1I AVERAGE MISS LATENCY: 20.7737 cycles
L1I

SHEET
L1I-total_access : 11426391
L1I-total_hit : 10656953
L1I-total_miss : 769438
L1I-load_access : 9446967
L1I-load_hit : 9326179
L1I-load_miss : 120788
L1I-rfo_access : 0
L1I-rfo_hit : 0
L1I-rfo_miss : 0
L1I-prefetch_access : 1979424
L1I-prefetch_hit : 1330774
L1I-prefetch_miss : 648650
L1I-writeback_access : 0
L1I-writeback_hit : 0
L1I-writeback_miss : 0
L1I-prefetch_requested : 2054241
L1I-prefetch_issued : 2054237
L1I-prefetch_useful : 420354
L1I-prefetch_useless : 228319
L1I-Avg_miss_latency : 20.7737

L2C TOTAL     ACCESS:    1869270  HIT:    1472097  MISS:     397173
L2C LOAD      ACCESS:     196520  HIT:     151155  MISS:      45365
L2C RFO       ACCESS:     232296  HIT:      25946  MISS:     206350
L2C PREFETCH  ACCESS:    1171145  HIT:    1026771  MISS:     144374
L2C WRITEBACK ACCESS:     269309  HIT:     268225  MISS:       1084
L2C PREFETCH  REQUESTED:    1364770  ISSUED:    1364139  USEFUL:      12552  USELESS:     132361
L2C AVERAGE MISS LATENCY: 168.29 cycles
L2C

SHEET
L2C-total_access : 1869270
L2C-total_hit : 1472097
L2C-total_miss : 397173
L2C-load_access : 196520
L2C-load_hit : 151155
L2C-load_miss : 45365
L2C-rfo_access : 232296
L2C-rfo_hit : 25946
L2C-rfo_miss : 206350
L2C-prefetch_access : 1171145
L2C-prefetch_hit : 1026771
L2C-prefetch_miss : 144374
L2C-writeback_access : 269309
L2C-writeback_hit : 268225
L2C-writeback_miss : 1084
L2C-prefetch_requested : 1364770
L2C-prefetch_issued : 1364139
L2C-prefetch_useful : 12552
L2C-prefetch_useless : 132361
L2C-Avg_miss_latency : 168.29

LLC TOTAL     ACCESS:    1006962  HIT:     720570  MISS:     286392
LLC LOAD      ACCESS:      45265  HIT:      31712  MISS:      13553
LLC RFO       ACCESS:     206343  HIT:      34819  MISS:     171524
LLC PREFETCH  ACCESS:     531557  HIT:     430658  MISS:     100899
LLC WRITEBACK ACCESS:     223797  HIT:     223381  MISS:        416
LLC PREFETCH  REQUESTED:          0  ISSUED:          0  USEFUL:      10825  USELESS:      90759
LLC AVERAGE MISS LATENCY: 231.344 cycles
LLC

SHEET
LLC-total_access : 1006962
LLC-total_hit : 720570
LLC-total_miss : 286392
LLC-load_access : 45265
LLC-load_hit : 31712
LLC-load_miss : 13553
LLC-rfo_access : 206343
LLC-rfo_hit : 34819
LLC-rfo_miss : 171524
LLC-prefetch_access : 531557
LLC-prefetch_hit : 430658
LLC-prefetch_miss : 100899
LLC-writeback_access : 223797
LLC-writeback_hit : 223381
LLC-writeback_miss : 416
LLC-prefetch_requested : 0
LLC-prefetch_issued : 0
LLC-prefetch_useful : 10825
LLC-prefetch_useless : 90759
LLC-Avg_miss_latency : 231.344

Major fault: 0 Minor fault: 5042
I-Shadow cache 408 bytes
Touched + WorthPF tables 24576 bytes 
MMA filter 174 bytes 
FNL filter 272 bytes 
TOTAL PREFETCHER STORAGE SIZE: 98134 bytes
CPU 0 L1I next line prefetcher final stats

 morteza stats start 

SHEET
fnlfilter_access_cntr : 13071022
iShadow_access_cntr : 42416418
missahead_access_cntr : 3950586
mmafilter_access_cntr : 4565937
touched_access_cntr : 31375610
worthpf_access_cntr : 13164353


morteza stats endCPU 0 L1D next line prefetcher final stats

DRAM Statistics
 CHANNEL 0
 RQ ROW_BUFFER_HIT:     100334  ROW_BUFFER_MISS:     185634
 DBUS_CONGESTED:     260982
 WQ ROW_BUFFER_HIT:      58958  ROW_BUFFER_MISS:     119873  FULL:          0

 AVG_CONGESTED_CYCLE: 6

CPU 0 Branch Prediction Accuracy: 98.6631% MPKI: 2.66884 Average ROB Occupancy at Mispredict: 76.2691

Branch types
NOT_BRANCH: 40018780 80.0376%
BRANCH_DIRECT_JUMP: 370861 0.741722%
BRANCH_INDIRECT: 83253 0.166506%
BRANCH_CONDITIONAL: 7877436 15.7549%
BRANCH_DIRECT_CALL: 722316 1.44463%
BRANCH_INDIRECT_CALL: 101901 0.203802%
BRANCH_RETURN: 825355 1.65071%
BRANCH_OTHER: 0 0%

