Initialize SIGNATURE TABLE
ST_SET: 1
ST_WAY: 256
ST_TAG_BIT: 16
ST_TAG_MASK: ffff

Initialize PATTERN TABLE
PT_SET: 512
PT_WAY: 4
SIG_DELTA_BIT: 7
C_SIG_BIT: 4
C_DELTA_BIT: 4

Initialize PREFETCH FILTER
FILTER_SET: 1024

*** ChampSim Multicore Out-of-Order Simulator ***

Warmup Instructions: 50000000
Simulation Instructions: 50000000
Number of CPUs: 1
LLC sets: 2048
LLC ways: 16
Off-chip DRAM Size: 4096 MB Channels: 1 Width: 64-bit Data Rate: 3200 MT/s

CPU 0 runs /home/mbaradaran/ChampSim/dpc3_traces/server_002.champsimtrace.xz
CPU 0 L1I next line prefetcher
CPU 0 L1D next line prefetcher
Heartbeat CPU 0 instructions: 10000000 cycles: 3581221 heartbeat IPC: 2.79234 cumulative IPC: 2.79234 (Simulation time: 0 hr 1 min 33 sec) 
Heartbeat CPU 0 instructions: 20000002 cycles: 7169937 heartbeat IPC: 2.78651 cumulative IPC: 2.78943 (Simulation time: 0 hr 3 min 11 sec) 
Heartbeat CPU 0 instructions: 30000000 cycles: 10710690 heartbeat IPC: 2.82426 cumulative IPC: 2.80094 (Simulation time: 0 hr 4 min 55 sec) 
Heartbeat CPU 0 instructions: 40000000 cycles: 14260935 heartbeat IPC: 2.81671 cumulative IPC: 2.80487 (Simulation time: 0 hr 6 min 39 sec) 
Heartbeat CPU 0 instructions: 50000001 cycles: 17808706 heartbeat IPC: 2.81867 cumulative IPC: 2.80762 (Simulation time: 0 hr 8 min 27 sec) 

Warmup complete CPU 0 instructions: 50000001 cycles: 17808706 (Simulation time: 0 hr 8 min 27 sec) 

Heartbeat CPU 0 instructions: 60000000 cycles: 24253744 heartbeat IPC: 1.55158 cumulative IPC: 1.55158 (Simulation time: 0 hr 10 min 20 sec) 
Heartbeat CPU 0 instructions: 70000003 cycles: 30689263 heartbeat IPC: 1.55388 cumulative IPC: 1.55273 (Simulation time: 0 hr 12 min 13 sec) 
Heartbeat CPU 0 instructions: 80000003 cycles: 37126455 heartbeat IPC: 1.55347 cumulative IPC: 1.55298 (Simulation time: 0 hr 14 min 5 sec) 
Heartbeat CPU 0 instructions: 90000002 cycles: 43562023 heartbeat IPC: 1.55386 cumulative IPC: 1.5532 (Simulation time: 0 hr 15 min 52 sec) 
Heartbeat CPU 0 instructions: 100000003 cycles: 49995656 heartbeat IPC: 1.55433 cumulative IPC: 1.55342 (Simulation time: 0 hr 17 min 36 sec) 
Finished CPU 0 instructions: 50000002 cycles: 32186950 cumulative IPC: 1.55342 (Simulation time: 0 hr 17 min 36 sec) 

ChampSim completed all CPUs

Region of Interest Statistics

CPU 0 cumulative IPC: 1.55342 instructions: 50000002 cycles: 32186950

SHEET
IPC : 1.55342

L1D TOTAL     ACCESS:   21525330  HIT:   21524522  MISS:        808
L1D LOAD      ACCESS:    6602340  HIT:    6601966  MISS:        374
L1D RFO       ACCESS:    8433018  HIT:    8432904  MISS:        114
L1D PREFETCH  ACCESS:    6489972  HIT:    6489652  MISS:        320
L1D WRITEBACK ACCESS:          0  HIT:          0  MISS:          0
L1D PREFETCH  REQUESTED:    6602394  ISSUED:    6497338  USEFUL:         91  USELESS:        230
L1D AVERAGE MISS LATENCY: 44.1485 cycles
L1D

SHEET
L1D-total_access : 21525330
L1D-total_hit : 21524522
L1D-total_miss : 808
L1D-load_access : 6602340
L1D-load_hit : 6601966
L1D-load_miss : 374
L1D-rfo_access : 8433018
L1D-rfo_hit : 8432904
L1D-rfo_miss : 114
L1D-prefetch_access : 6489972
L1D-prefetch_hit : 6489652
L1D-prefetch_miss : 320
L1D-writeback_access : 0
L1D-writeback_hit : 0
L1D-writeback_miss : 0
L1D-prefetch_requested : 6602394
L1D-prefetch_issued : 6497338
L1D-prefetch_useful : 91
L1D-prefetch_useless : 230
L1D-Avg_miss_latency : 44.1485

L1I TOTAL     ACCESS:   14940413  HIT:   13823937  MISS:    1116476
L1I LOAD      ACCESS:    9875758  HIT:    9846201  MISS:      29557
L1I RFO       ACCESS:          0  HIT:          0  MISS:          0
L1I PREFETCH  ACCESS:    5064655  HIT:    3977736  MISS:    1086919
L1I WRITEBACK ACCESS:          0  HIT:          0  MISS:          0
L1I PREFETCH  REQUESTED:    5142162  ISSUED:    5142162  USEFUL:     930294  USELESS:     156618
L1I AVERAGE MISS LATENCY: 13.9705 cycles
L1I

SHEET
L1I-total_access : 14940413
L1I-total_hit : 13823937
L1I-total_miss : 1116476
L1I-load_access : 9875758
L1I-load_hit : 9846201
L1I-load_miss : 29557
L1I-rfo_access : 0
L1I-rfo_hit : 0
L1I-rfo_miss : 0
L1I-prefetch_access : 5064655
L1I-prefetch_hit : 3977736
L1I-prefetch_miss : 1086919
L1I-writeback_access : 0
L1I-writeback_hit : 0
L1I-writeback_miss : 0
L1I-prefetch_requested : 5142162
L1I-prefetch_issued : 5142162
L1I-prefetch_useful : 930294
L1I-prefetch_useless : 156618
L1I-Avg_miss_latency : 13.9705

L2C TOTAL     ACCESS:    1343233  HIT:    1342868  MISS:        365
L2C LOAD      ACCESS:       8976  HIT:       8896  MISS:         80
L2C RFO       ACCESS:        113  HIT:        111  MISS:          2
L2C PREFETCH  ACCESS:    1333809  HIT:    1333528  MISS:        281
L2C WRITEBACK ACCESS:        335  HIT:        333  MISS:          2
L2C PREFETCH  REQUESTED:     678946  ISSUED:     678877  USEFUL:        114  USELESS:        145
L2C AVERAGE MISS LATENCY: 300.197 cycles
L2C

SHEET
L2C-total_access : 1343233
L2C-total_hit : 1342868
L2C-total_miss : 365
L2C-load_access : 8976
L2C-load_hit : 8896
L2C-load_miss : 80
L2C-rfo_access : 113
L2C-rfo_hit : 111
L2C-rfo_miss : 2
L2C-prefetch_access : 1333809
L2C-prefetch_hit : 1333528
L2C-prefetch_miss : 281
L2C-writeback_access : 335
L2C-writeback_hit : 333
L2C-writeback_miss : 2
L2C-prefetch_requested : 678946
L2C-prefetch_issued : 678877
L2C-prefetch_useful : 114
L2C-prefetch_useless : 145
L2C-Avg_miss_latency : 300.197

LLC TOTAL     ACCESS:     134188  HIT:     133124  MISS:       1064
LLC LOAD      ACCESS:         80  HIT:         67  MISS:         13
LLC RFO       ACCESS:          2  HIT:          0  MISS:          2
LLC PREFETCH  ACCESS:     133983  HIT:     132940  MISS:       1043
LLC WRITEBACK ACCESS:        123  HIT:        117  MISS:          6
LLC PREFETCH  REQUESTED:          0  ISSUED:          0  USEFUL:         16  USELESS:        298
LLC AVERAGE MISS LATENCY: 650.517 cycles
LLC

SHEET
LLC-total_access : 134188
LLC-total_hit : 133124
LLC-total_miss : 1064
LLC-load_access : 80
LLC-load_hit : 67
LLC-load_miss : 13
LLC-rfo_access : 2
LLC-rfo_hit : 0
LLC-rfo_miss : 2
LLC-prefetch_access : 133983
LLC-prefetch_hit : 132940
LLC-prefetch_miss : 1043
LLC-writeback_access : 123
LLC-writeback_hit : 117
LLC-writeback_miss : 6
LLC-prefetch_requested : 0
LLC-prefetch_issued : 0
LLC-prefetch_useful : 16
LLC-prefetch_useless : 298
LLC-Avg_miss_latency : 650.517

Major fault: 0 Minor fault: 1867
I-Shadow cache 408 bytes
Touched + WorthPF tables 24576 bytes 
MMA filter 174 bytes 
FNL filter 272 bytes 
TOTAL PREFETCHER STORAGE SIZE: 98134 bytes
CPU 0 L1I next line prefetcher final stats

 morteza stats start 

SHEET
fnlfilter_access_cntr : 27197255
iShadow_access_cntr : 42765658
missahead_access_cntr : 9978601
mmafilter_access_cntr : 12416880
touched_access_cntr : 77374190
worthpf_access_cntr : 26399822


morteza stats endCPU 0 L1D next line prefetcher final stats

DRAM Statistics
 CHANNEL 0
 RQ ROW_BUFFER_HIT:        262  ROW_BUFFER_MISS:        796
 DBUS_CONGESTED:        837
 WQ ROW_BUFFER_HIT:        101  ROW_BUFFER_MISS:        565  FULL:          0

 AVG_CONGESTED_CYCLE: 6

CPU 0 Branch Prediction Accuracy: 99.8789% MPKI: 0.20388 Average ROB Occupancy at Mispredict: 280.935

Branch types
NOT_BRANCH: 41580695 83.1614%
BRANCH_DIRECT_JUMP: 461630 0.92326%
BRANCH_INDIRECT: 0 0%
BRANCH_CONDITIONAL: 5376437 10.7529%
BRANCH_DIRECT_CALL: 1175775 2.35155%
BRANCH_INDIRECT_CALL: 114840 0.22968%
BRANCH_RETURN: 1290625 2.58125%
BRANCH_OTHER: 0 0%

