Initialize SIGNATURE TABLE
ST_SET: 1
ST_WAY: 256
ST_TAG_BIT: 16
ST_TAG_MASK: ffff

Initialize PATTERN TABLE
PT_SET: 512
PT_WAY: 4
SIG_DELTA_BIT: 7
C_SIG_BIT: 4
C_DELTA_BIT: 4

Initialize PREFETCH FILTER
FILTER_SET: 1024

*** ChampSim Multicore Out-of-Order Simulator ***

Warmup Instructions: 50000000
Simulation Instructions: 50000000
Number of CPUs: 1
LLC sets: 2048
LLC ways: 16
Off-chip DRAM Size: 4096 MB Channels: 1 Width: 64-bit Data Rate: 3200 MT/s

CPU 0 runs /home/mbaradaran/ChampSim/dpc3_traces/server_023.champsimtrace.xz
CPU 0 L1I next line prefetcher
CPU 0 L1D next line prefetcher
Heartbeat CPU 0 instructions: 10000000 cycles: 3502415 heartbeat IPC: 2.85517 cumulative IPC: 2.85517 (Simulation time: 0 hr 1 min 54 sec) 
Heartbeat CPU 0 instructions: 20000000 cycles: 7003570 heartbeat IPC: 2.8562 cumulative IPC: 2.85569 (Simulation time: 0 hr 3 min 41 sec) 
Heartbeat CPU 0 instructions: 30000001 cycles: 10496297 heartbeat IPC: 2.86309 cumulative IPC: 2.85815 (Simulation time: 0 hr 5 min 29 sec) 
Heartbeat CPU 0 instructions: 40000003 cycles: 13994996 heartbeat IPC: 2.85821 cumulative IPC: 2.85816 (Simulation time: 0 hr 7 min 21 sec) 
Heartbeat CPU 0 instructions: 50000001 cycles: 17496086 heartbeat IPC: 2.85625 cumulative IPC: 2.85778 (Simulation time: 0 hr 9 min 13 sec) 

Warmup complete CPU 0 instructions: 50000001 cycles: 17496086 (Simulation time: 0 hr 9 min 13 sec) 

Heartbeat CPU 0 instructions: 60000002 cycles: 24248431 heartbeat IPC: 1.48097 cumulative IPC: 1.48097 (Simulation time: 0 hr 10 min 58 sec) 
Heartbeat CPU 0 instructions: 70000002 cycles: 31206656 heartbeat IPC: 1.43715 cumulative IPC: 1.45873 (Simulation time: 0 hr 12 min 48 sec) 
Heartbeat CPU 0 instructions: 80000000 cycles: 38076620 heartbeat IPC: 1.45561 cumulative IPC: 1.45769 (Simulation time: 0 hr 14 min 41 sec) 
Heartbeat CPU 0 instructions: 90000000 cycles: 44988735 heartbeat IPC: 1.44674 cumulative IPC: 1.45493 (Simulation time: 0 hr 16 min 23 sec) 
Heartbeat CPU 0 instructions: 100000001 cycles: 51842178 heartbeat IPC: 1.45912 cumulative IPC: 1.45577 (Simulation time: 0 hr 18 min 18 sec) 
Finished CPU 0 instructions: 50000000 cycles: 34346092 cumulative IPC: 1.45577 (Simulation time: 0 hr 18 min 18 sec) 

ChampSim completed all CPUs

Region of Interest Statistics

CPU 0 cumulative IPC: 1.45577 instructions: 50000000 cycles: 34346092

SHEET
IPC : 1.45577

L1D TOTAL     ACCESS:   19351868  HIT:   17884923  MISS:    1466945
L1D LOAD      ACCESS:    6846871  HIT:    6185236  MISS:     661635
L1D RFO       ACCESS:    5981108  HIT:    5719575  MISS:     261533
L1D PREFETCH  ACCESS:    6523889  HIT:    5980112  MISS:     543777
L1D WRITEBACK ACCESS:          0  HIT:          0  MISS:          0
L1D PREFETCH  REQUESTED:    6897618  ISSUED:    6776013  USEFUL:     129112  USELESS:     414673
L1D AVERAGE MISS LATENCY: 24.8219 cycles
L1D

SHEET
L1D-total_access : 19351868
L1D-total_hit : 17884923
L1D-total_miss : 1466945
L1D-load_access : 6846871
L1D-load_hit : 6185236
L1D-load_miss : 661635
L1D-rfo_access : 5981108
L1D-rfo_hit : 5719575
L1D-rfo_miss : 261533
L1D-prefetch_access : 6523889
L1D-prefetch_hit : 5980112
L1D-prefetch_miss : 543777
L1D-writeback_access : 0
L1D-writeback_hit : 0
L1D-writeback_miss : 0
L1D-prefetch_requested : 6897618
L1D-prefetch_issued : 6776013
L1D-prefetch_useful : 129112
L1D-prefetch_useless : 414673
L1D-Avg_miss_latency : 24.8219

L1I TOTAL     ACCESS:   13865823  HIT:   10603592  MISS:    3262231
L1I LOAD      ACCESS:    9430212  HIT:    9340391  MISS:      89821
L1I RFO       ACCESS:          0  HIT:          0  MISS:          0
L1I PREFETCH  ACCESS:    4435611  HIT:    1263201  MISS:    3172410
L1I WRITEBACK ACCESS:          0  HIT:          0  MISS:          0
L1I PREFETCH  REQUESTED:    4605483  ISSUED:    4604811  USEFUL:    2395951  USELESS:     776481
L1I AVERAGE MISS LATENCY: 18.6368 cycles
L1I

SHEET
L1I-total_access : 13865823
L1I-total_hit : 10603592
L1I-total_miss : 3262231
L1I-load_access : 9430212
L1I-load_hit : 9340391
L1I-load_miss : 89821
L1I-rfo_access : 0
L1I-rfo_hit : 0
L1I-rfo_miss : 0
L1I-prefetch_access : 4435611
L1I-prefetch_hit : 1263201
L1I-prefetch_miss : 3172410
L1I-writeback_access : 0
L1I-writeback_hit : 0
L1I-writeback_miss : 0
L1I-prefetch_requested : 4605483
L1I-prefetch_issued : 4604811
L1I-prefetch_useful : 2395951
L1I-prefetch_useless : 776481
L1I-Avg_miss_latency : 18.6368

L2C TOTAL     ACCESS:    6378638  HIT:    5635802  MISS:     742836
L2C LOAD      ACCESS:     638409  HIT:     508931  MISS:     129478
L2C RFO       ACCESS:     259384  HIT:     165973  MISS:      93411
L2C PREFETCH  ACCESS:    4981558  HIT:    4463844  MISS:     517714
L2C WRITEBACK ACCESS:     499287  HIT:     497054  MISS:       2233
L2C PREFETCH  REQUESTED:    6230293  ISSUED:    6218071  USEFUL:      16194  USELESS:     501594
L2C AVERAGE MISS LATENCY: 41.9868 cycles
L2C

SHEET
L2C-total_access : 6378638
L2C-total_hit : 5635802
L2C-total_miss : 742836
L2C-load_access : 638409
L2C-load_hit : 508931
L2C-load_miss : 129478
L2C-rfo_access : 259384
L2C-rfo_hit : 165973
L2C-rfo_miss : 93411
L2C-prefetch_access : 4981558
L2C-prefetch_hit : 4463844
L2C-prefetch_miss : 517714
L2C-writeback_access : 499287
L2C-writeback_hit : 497054
L2C-writeback_miss : 2233
L2C-prefetch_requested : 6230293
L2C-prefetch_issued : 6218071
L2C-prefetch_useful : 16194
L2C-prefetch_useless : 501594
L2C-Avg_miss_latency : 41.9868

LLC TOTAL     ACCESS:    2350515  HIT:    2298257  MISS:      52258
LLC LOAD      ACCESS:     129262  HIT:     122947  MISS:       6315
LLC RFO       ACCESS:      93378  HIT:      75588  MISS:      17790
LLC PREFETCH  ACCESS:    1978930  HIT:    1951049  MISS:      27881
LLC WRITEBACK ACCESS:     148945  HIT:     148673  MISS:        272
LLC PREFETCH  REQUESTED:          0  ISSUED:          0  USEFUL:       2746  USELESS:      25167
LLC AVERAGE MISS LATENCY: 181.049 cycles
LLC

SHEET
LLC-total_access : 2350515
LLC-total_hit : 2298257
LLC-total_miss : 52258
LLC-load_access : 129262
LLC-load_hit : 122947
LLC-load_miss : 6315
LLC-rfo_access : 93378
LLC-rfo_hit : 75588
LLC-rfo_miss : 17790
LLC-prefetch_access : 1978930
LLC-prefetch_hit : 1951049
LLC-prefetch_miss : 27881
LLC-writeback_access : 148945
LLC-writeback_hit : 148673
LLC-writeback_miss : 272
LLC-prefetch_requested : 0
LLC-prefetch_issued : 0
LLC-prefetch_useful : 2746
LLC-prefetch_useless : 25167
LLC-Avg_miss_latency : 181.049

Major fault: 0 Minor fault: 2767
I-Shadow cache 408 bytes
Touched + WorthPF tables 24576 bytes 
MMA filter 174 bytes 
FNL filter 272 bytes 
TOTAL PREFETCHER STORAGE SIZE: 98134 bytes
CPU 0 L1I next line prefetcher final stats

 morteza stats start 

SHEET
fnlfilter_access_cntr : 24522717
iShadow_access_cntr : 41516526
missahead_access_cntr : 7569511
mmafilter_access_cntr : 12592569
touched_access_cntr : 59029220
worthpf_access_cntr : 24792885


morteza stats endCPU 0 L1D next line prefetcher final stats

DRAM Statistics
 CHANNEL 0
 RQ ROW_BUFFER_HIT:      15672  ROW_BUFFER_MISS:      36292
 DBUS_CONGESTED:      33381
 WQ ROW_BUFFER_HIT:       2572  ROW_BUFFER_MISS:      18877  FULL:          0

 AVG_CONGESTED_CYCLE: 6

CPU 0 Branch Prediction Accuracy: 99.6798% MPKI: 0.58608 Average ROB Occupancy at Mispredict: 147.645

Branch types
NOT_BRANCH: 40848334 81.6967%
BRANCH_DIRECT_JUMP: 548372 1.09674%
BRANCH_INDIRECT: 189802 0.379604%
BRANCH_CONDITIONAL: 6372772 12.7455%
BRANCH_DIRECT_CALL: 862207 1.72441%
BRANCH_INDIRECT_CALL: 158149 0.316298%
BRANCH_RETURN: 1020345 2.04069%
BRANCH_OTHER: 0 0%

