Initialize SIGNATURE TABLE
ST_SET: 1
ST_WAY: 256
ST_TAG_BIT: 16
ST_TAG_MASK: ffff

Initialize PATTERN TABLE
PT_SET: 512
PT_WAY: 4
SIG_DELTA_BIT: 7
C_SIG_BIT: 4
C_DELTA_BIT: 4

Initialize PREFETCH FILTER
FILTER_SET: 1024

*** ChampSim Multicore Out-of-Order Simulator ***

Warmup Instructions: 50000000
Simulation Instructions: 50000000
Number of CPUs: 1
LLC sets: 2048
LLC ways: 16
Off-chip DRAM Size: 4096 MB Channels: 1 Width: 64-bit Data Rate: 3200 MT/s

CPU 0 runs /home/mbaradaran/ChampSim/dpc3_traces/server_037.champsimtrace.xz
CPU 0 L1I next line prefetcher
CPU 0 L1D next line prefetcher
Heartbeat CPU 0 instructions: 10000001 cycles: 3319211 heartbeat IPC: 3.01276 cumulative IPC: 3.01276 (Simulation time: 0 hr 1 min 46 sec) 
Heartbeat CPU 0 instructions: 20000002 cycles: 6635840 heartbeat IPC: 3.01511 cumulative IPC: 3.01394 (Simulation time: 0 hr 3 min 23 sec) 
Heartbeat CPU 0 instructions: 30000003 cycles: 10000399 heartbeat IPC: 2.97216 cumulative IPC: 2.99988 (Simulation time: 0 hr 4 min 43 sec) 
Heartbeat CPU 0 instructions: 40000000 cycles: 13318966 heartbeat IPC: 3.01335 cumulative IPC: 3.00324 (Simulation time: 0 hr 5 min 59 sec) 
Heartbeat CPU 0 instructions: 50000003 cycles: 16637004 heartbeat IPC: 3.01383 cumulative IPC: 3.00535 (Simulation time: 0 hr 7 min 13 sec) 

Warmup complete CPU 0 instructions: 50000003 cycles: 16637004 (Simulation time: 0 hr 7 min 13 sec) 

Heartbeat CPU 0 instructions: 60000001 cycles: 23016760 heartbeat IPC: 1.56746 cumulative IPC: 1.56746 (Simulation time: 0 hr 8 min 33 sec) 
Heartbeat CPU 0 instructions: 70000000 cycles: 29499851 heartbeat IPC: 1.54247 cumulative IPC: 1.55487 (Simulation time: 0 hr 9 min 52 sec) 
Heartbeat CPU 0 instructions: 80000000 cycles: 35873577 heartbeat IPC: 1.56894 cumulative IPC: 1.55953 (Simulation time: 0 hr 11 min 9 sec) 
Heartbeat CPU 0 instructions: 90000002 cycles: 42273822 heartbeat IPC: 1.56244 cumulative IPC: 1.56026 (Simulation time: 0 hr 12 min 25 sec) 
*** Reached end of trace for Core: 0 Repeating trace: /home/mbaradaran/ChampSim/dpc3_traces/server_037.champsimtrace.xz
Heartbeat CPU 0 instructions: 100000000 cycles: 48665814 heartbeat IPC: 1.56446 cumulative IPC: 1.56109 (Simulation time: 0 hr 13 min 40 sec) 
Finished CPU 0 instructions: 50000001 cycles: 32028811 cumulative IPC: 1.56109 (Simulation time: 0 hr 13 min 40 sec) 

ChampSim completed all CPUs

Region of Interest Statistics

CPU 0 cumulative IPC: 1.56109 instructions: 50000001 cycles: 32028811

SHEET
IPC : 1.56109

L1D TOTAL     ACCESS:   18684209  HIT:   17706262  MISS:     977947
L1D LOAD      ACCESS:    6358364  HIT:    5867094  MISS:     491270
L1D RFO       ACCESS:    6205321  HIT:    6141336  MISS:      63985
L1D PREFETCH  ACCESS:    6120524  HIT:    5697832  MISS:     422692
L1D WRITEBACK ACCESS:          0  HIT:          0  MISS:          0
L1D PREFETCH  REQUESTED:    6394891  ISSUED:    6241782  USEFUL:     117578  USELESS:     305118
L1D AVERAGE MISS LATENCY: 28.8652 cycles
L1D

SHEET
L1D-total_access : 18684209
L1D-total_hit : 17706262
L1D-total_miss : 977947
L1D-load_access : 6358364
L1D-load_hit : 5867094
L1D-load_miss : 491270
L1D-rfo_access : 6205321
L1D-rfo_hit : 6141336
L1D-rfo_miss : 63985
L1D-prefetch_access : 6120524
L1D-prefetch_hit : 5697832
L1D-prefetch_miss : 422692
L1D-writeback_access : 0
L1D-writeback_hit : 0
L1D-writeback_miss : 0
L1D-prefetch_requested : 6394891
L1D-prefetch_issued : 6241782
L1D-prefetch_useful : 117578
L1D-prefetch_useless : 305118
L1D-Avg_miss_latency : 28.8652

L1I TOTAL     ACCESS:   15806949  HIT:   11193556  MISS:    4613393
L1I LOAD      ACCESS:    9425061  HIT:    9405524  MISS:      19537
L1I RFO       ACCESS:          0  HIT:          0  MISS:          0
L1I PREFETCH  ACCESS:    6381888  HIT:    1788032  MISS:    4593856
L1I WRITEBACK ACCESS:          0  HIT:          0  MISS:          0
L1I PREFETCH  REQUESTED:    6562877  ISSUED:    6562875  USEFUL:    4075332  USELESS:     518556
L1I AVERAGE MISS LATENCY: 14.9719 cycles
L1I

SHEET
L1I-total_access : 15806949
L1I-total_hit : 11193556
L1I-total_miss : 4613393
L1I-load_access : 9425061
L1I-load_hit : 9405524
L1I-load_miss : 19537
L1I-rfo_access : 0
L1I-rfo_hit : 0
L1I-rfo_miss : 0
L1I-prefetch_access : 6381888
L1I-prefetch_hit : 1788032
L1I-prefetch_miss : 4593856
L1I-writeback_access : 0
L1I-writeback_hit : 0
L1I-writeback_miss : 0
L1I-prefetch_requested : 6562877
L1I-prefetch_issued : 6562875
L1I-prefetch_useful : 4075332
L1I-prefetch_useless : 518556
L1I-Avg_miss_latency : 14.9719

L2C TOTAL     ACCESS:    8004606  HIT:    7696415  MISS:     308191
L2C LOAD      ACCESS:     498236  HIT:     360020  MISS:     138216
L2C RFO       ACCESS:      63700  HIT:      36713  MISS:      26987
L2C PREFETCH  ACCESS:    7153190  HIT:    7011164  MISS:     142026
L2C WRITEBACK ACCESS:     289480  HIT:     288518  MISS:        962
L2C PREFETCH  REQUESTED:    7692864  ISSUED:    7676460  USEFUL:       6592  USELESS:     135293
L2C AVERAGE MISS LATENCY: 45.6129 cycles
L2C

SHEET
L2C-total_access : 8004606
L2C-total_hit : 7696415
L2C-total_miss : 308191
L2C-load_access : 498236
L2C-load_hit : 360020
L2C-load_miss : 138216
L2C-rfo_access : 63700
L2C-rfo_hit : 36713
L2C-rfo_miss : 26987
L2C-prefetch_access : 7153190
L2C-prefetch_hit : 7011164
L2C-prefetch_miss : 142026
L2C-writeback_access : 289480
L2C-writeback_hit : 288518
L2C-writeback_miss : 962
L2C-prefetch_requested : 7692864
L2C-prefetch_issued : 7676460
L2C-prefetch_useful : 6592
L2C-prefetch_useless : 135293
L2C-Avg_miss_latency : 45.6129

LLC TOTAL     ACCESS:    1980260  HIT:    1920502  MISS:      59758
LLC LOAD      ACCESS:     138184  HIT:     125502  MISS:      12682
LLC RFO       ACCESS:      26986  HIT:      22450  MISS:       4536
LLC PREFETCH  ACCESS:    1678117  HIT:    1636201  MISS:      41916
LLC WRITEBACK ACCESS:     136973  HIT:     136349  MISS:        624
LLC PREFETCH  REQUESTED:          0  ISSUED:          0  USEFUL:       4573  USELESS:      36323
LLC AVERAGE MISS LATENCY: 165.989 cycles
LLC

SHEET
LLC-total_access : 1980260
LLC-total_hit : 1920502
LLC-total_miss : 59758
LLC-load_access : 138184
LLC-load_hit : 125502
LLC-load_miss : 12682
LLC-rfo_access : 26986
LLC-rfo_hit : 22450
LLC-rfo_miss : 4536
LLC-prefetch_access : 1678117
LLC-prefetch_hit : 1636201
LLC-prefetch_miss : 41916
LLC-writeback_access : 136973
LLC-writeback_hit : 136349
LLC-writeback_miss : 624
LLC-prefetch_requested : 0
LLC-prefetch_issued : 0
LLC-prefetch_useful : 4573
LLC-prefetch_useless : 36323
LLC-Avg_miss_latency : 165.989

Major fault: 0 Minor fault: 5653
I-Shadow cache 408 bytes
Touched + WorthPF tables 24576 bytes 
MMA filter 174 bytes 
FNL filter 272 bytes 
TOTAL PREFETCHER STORAGE SIZE: 98134 bytes
CPU 0 L1I next line prefetcher final stats

 morteza stats start 

SHEET
fnlfilter_access_cntr : 37552452
iShadow_access_cntr : 41750048
missahead_access_cntr : 10791050
mmafilter_access_cntr : 18086082
touched_access_cntr : 92144940
worthpf_access_cntr : 35847735


morteza stats endCPU 0 L1D next line prefetcher final stats

DRAM Statistics
 CHANNEL 0
 RQ ROW_BUFFER_HIT:       8931  ROW_BUFFER_MISS:      50202
 DBUS_CONGESTED:      29212
 WQ ROW_BUFFER_HIT:       1415  ROW_BUFFER_MISS:      11104  FULL:          0

 AVG_CONGESTED_CYCLE: 5

CPU 0 Branch Prediction Accuracy: 99.913% MPKI: 0.15656 Average ROB Occupancy at Mispredict: 225.908

Branch types
NOT_BRANCH: 41001718 82.0034%
BRANCH_DIRECT_JUMP: 541941 1.08388%
BRANCH_INDIRECT: 59716 0.119432%
BRANCH_CONDITIONAL: 5916852 11.8337%
BRANCH_DIRECT_CALL: 1005464 2.01093%
BRANCH_INDIRECT_CALL: 234433 0.468866%
BRANCH_RETURN: 1239877 2.47975%
BRANCH_OTHER: 0 0%

