Initialize SIGNATURE TABLE
ST_SET: 1
ST_WAY: 256
ST_TAG_BIT: 16
ST_TAG_MASK: ffff

Initialize PATTERN TABLE
PT_SET: 512
PT_WAY: 4
SIG_DELTA_BIT: 7
C_SIG_BIT: 4
C_DELTA_BIT: 4

Initialize PREFETCH FILTER
FILTER_SET: 1024

*** ChampSim Multicore Out-of-Order Simulator ***

Warmup Instructions: 50000000
Simulation Instructions: 50000000
Number of CPUs: 1
LLC sets: 2048
LLC ways: 16
Off-chip DRAM Size: 4096 MB Channels: 1 Width: 64-bit Data Rate: 3200 MT/s

CPU 0 runs /home/mbaradaran/ChampSim/dpc3_traces/server_026.champsimtrace.xz
CPU 0 L1I next line prefetcher
CPU 0 L1D next line prefetcher
Heartbeat CPU 0 instructions: 10000000 cycles: 3526840 heartbeat IPC: 2.8354 cumulative IPC: 2.8354 (Simulation time: 0 hr 1 min 46 sec) 
Heartbeat CPU 0 instructions: 20000002 cycles: 7059086 heartbeat IPC: 2.83106 cumulative IPC: 2.83323 (Simulation time: 0 hr 3 min 36 sec) 
Heartbeat CPU 0 instructions: 30000000 cycles: 10581356 heartbeat IPC: 2.83908 cumulative IPC: 2.83518 (Simulation time: 0 hr 5 min 21 sec) 
Heartbeat CPU 0 instructions: 40000003 cycles: 14112067 heartbeat IPC: 2.83229 cumulative IPC: 2.83445 (Simulation time: 0 hr 7 min 3 sec) 
Heartbeat CPU 0 instructions: 50000000 cycles: 17636048 heartbeat IPC: 2.8377 cumulative IPC: 2.8351 (Simulation time: 0 hr 8 min 47 sec) 

Warmup complete CPU 0 instructions: 50000004 cycles: 17636049 (Simulation time: 0 hr 8 min 47 sec) 

*** Reached end of trace for Core: 0 Repeating trace: /home/mbaradaran/ChampSim/dpc3_traces/server_026.champsimtrace.xz
Heartbeat CPU 0 instructions: 60000000 cycles: 24632141 heartbeat IPC: 1.42937 cumulative IPC: 1.42937 (Simulation time: 0 hr 10 min 46 sec) 
Heartbeat CPU 0 instructions: 70000003 cycles: 31505869 heartbeat IPC: 1.45482 cumulative IPC: 1.44198 (Simulation time: 0 hr 12 min 41 sec) 
Heartbeat CPU 0 instructions: 80000002 cycles: 38476740 heartbeat IPC: 1.43454 cumulative IPC: 1.43949 (Simulation time: 0 hr 14 min 39 sec) 
Heartbeat CPU 0 instructions: 90000002 cycles: 45354728 heartbeat IPC: 1.45391 cumulative IPC: 1.44307 (Simulation time: 0 hr 16 min 33 sec) 
Heartbeat CPU 0 instructions: 100000000 cycles: 52315493 heartbeat IPC: 1.43662 cumulative IPC: 1.44178 (Simulation time: 0 hr 18 min 27 sec) 
Finished CPU 0 instructions: 50000000 cycles: 34679445 cumulative IPC: 1.44178 (Simulation time: 0 hr 18 min 27 sec) 

ChampSim completed all CPUs

Region of Interest Statistics

CPU 0 cumulative IPC: 1.44178 instructions: 50000000 cycles: 34679445

SHEET
IPC : 1.44178

L1D TOTAL     ACCESS:   19774375  HIT:   18129302  MISS:    1645073
L1D LOAD      ACCESS:    6935557  HIT:    6205397  MISS:     730160
L1D RFO       ACCESS:    6240984  HIT:    5954202  MISS:     286782
L1D PREFETCH  ACCESS:    6597834  HIT:    5969703  MISS:     628131
L1D WRITEBACK ACCESS:          0  HIT:          0  MISS:          0
L1D PREFETCH  REQUESTED:    6983516  ISSUED:    6840953  USEFUL:     150364  USELESS:     477776
L1D AVERAGE MISS LATENCY: 24.7085 cycles
L1D

SHEET
L1D-total_access : 19774375
L1D-total_hit : 18129302
L1D-total_miss : 1645073
L1D-load_access : 6935557
L1D-load_hit : 6205397
L1D-load_miss : 730160
L1D-rfo_access : 6240984
L1D-rfo_hit : 5954202
L1D-rfo_miss : 286782
L1D-prefetch_access : 6597834
L1D-prefetch_hit : 5969703
L1D-prefetch_miss : 628131
L1D-writeback_access : 0
L1D-writeback_hit : 0
L1D-writeback_miss : 0
L1D-prefetch_requested : 6983516
L1D-prefetch_issued : 6840953
L1D-prefetch_useful : 150364
L1D-prefetch_useless : 477776
L1D-Avg_miss_latency : 24.7085

L1I TOTAL     ACCESS:   14732161  HIT:   10835537  MISS:    3896624
L1I LOAD      ACCESS:    9508930  HIT:    9407964  MISS:     100966
L1I RFO       ACCESS:          0  HIT:          0  MISS:          0
L1I PREFETCH  ACCESS:    5223231  HIT:    1427573  MISS:    3795658
L1I WRITEBACK ACCESS:          0  HIT:          0  MISS:          0
L1I PREFETCH  REQUESTED:    5440354  ISSUED:    5439154  USEFUL:    2755818  USELESS:    1039854
L1I AVERAGE MISS LATENCY: 18.9632 cycles
L1I

SHEET
L1I-total_access : 14732161
L1I-total_hit : 10835537
L1I-total_miss : 3896624
L1I-load_access : 9508930
L1I-load_hit : 9407964
L1I-load_miss : 100966
L1I-rfo_access : 0
L1I-rfo_hit : 0
L1I-rfo_miss : 0
L1I-prefetch_access : 5223231
L1I-prefetch_hit : 1427573
L1I-prefetch_miss : 3795658
L1I-writeback_access : 0
L1I-writeback_hit : 0
L1I-writeback_miss : 0
L1I-prefetch_requested : 5440354
L1I-prefetch_issued : 5439154
L1I-prefetch_useful : 2755818
L1I-prefetch_useless : 1039854
L1I-Avg_miss_latency : 18.9632

L2C TOTAL     ACCESS:    7480995  HIT:    6529140  MISS:     951855
L2C LOAD      ACCESS:     717787  HIT:     552494  MISS:     165293
L2C RFO       ACCESS:     284596  HIT:     187810  MISS:      96786
L2C PREFETCH  ACCESS:    5917463  HIT:    5232735  MISS:     684728
L2C WRITEBACK ACCESS:     561149  HIT:     556101  MISS:       5048
L2C PREFETCH  REQUESTED:    7604837  ISSUED:    7586069  USEFUL:      14872  USELESS:     669527
L2C AVERAGE MISS LATENCY: 38.5633 cycles
L2C

SHEET
L2C-total_access : 7480995
L2C-total_hit : 6529140
L2C-total_miss : 951855
L2C-load_access : 717787
L2C-load_hit : 552494
L2C-load_miss : 165293
L2C-rfo_access : 284596
L2C-rfo_hit : 187810
L2C-rfo_miss : 96786
L2C-prefetch_access : 5917463
L2C-prefetch_hit : 5232735
L2C-prefetch_miss : 684728
L2C-writeback_access : 561149
L2C-writeback_hit : 556101
L2C-writeback_miss : 5048
L2C-prefetch_requested : 7604837
L2C-prefetch_issued : 7586069
L2C-prefetch_useful : 14872
L2C-prefetch_useless : 669527
L2C-Avg_miss_latency : 38.5633

LLC TOTAL     ACCESS:    2854623  HIT:    2818719  MISS:      35904
LLC LOAD      ACCESS:     164997  HIT:     161392  MISS:       3605
LLC RFO       ACCESS:      96688  HIT:      82204  MISS:      14484
LLC PREFETCH  ACCESS:    2417938  HIT:    2400321  MISS:      17617
LLC WRITEBACK ACCESS:     175000  HIT:     174802  MISS:        198
LLC PREFETCH  REQUESTED:          0  ISSUED:          0  USEFUL:       1158  USELESS:      16734
LLC AVERAGE MISS LATENCY: 187.233 cycles
LLC

SHEET
LLC-total_access : 2854623
LLC-total_hit : 2818719
LLC-total_miss : 35904
LLC-load_access : 164997
LLC-load_hit : 161392
LLC-load_miss : 3605
LLC-rfo_access : 96688
LLC-rfo_hit : 82204
LLC-rfo_miss : 14484
LLC-prefetch_access : 2417938
LLC-prefetch_hit : 2400321
LLC-prefetch_miss : 17617
LLC-writeback_access : 175000
LLC-writeback_hit : 174802
LLC-writeback_miss : 198
LLC-prefetch_requested : 0
LLC-prefetch_issued : 0
LLC-prefetch_useful : 1158
LLC-prefetch_useless : 16734
LLC-Avg_miss_latency : 187.233

Major fault: 0 Minor fault: 2166
I-Shadow cache 408 bytes
Touched + WorthPF tables 24576 bytes 
MMA filter 174 bytes 
FNL filter 272 bytes 
TOTAL PREFETCHER STORAGE SIZE: 98134 bytes
CPU 0 L1I next line prefetcher final stats

 morteza stats start 

SHEET
fnlfilter_access_cntr : 27776039
iShadow_access_cntr : 42001888
missahead_access_cntr : 8152631
mmafilter_access_cntr : 14056617
touched_access_cntr : 65185930
worthpf_access_cntr : 27994765


morteza stats endCPU 0 L1D next line prefetcher final stats

DRAM Statistics
 CHANNEL 0
 RQ ROW_BUFFER_HIT:      12869  ROW_BUFFER_MISS:      22826
 DBUS_CONGESTED:      24617
 WQ ROW_BUFFER_HIT:       1568  ROW_BUFFER_MISS:      14196  FULL:          0

 AVG_CONGESTED_CYCLE: 6

CPU 0 Branch Prediction Accuracy: 99.822% MPKI: 0.32584 Average ROB Occupancy at Mispredict: 201.602

Branch types
NOT_BRANCH: 40848558 81.6971%
BRANCH_DIRECT_JUMP: 522045 1.04409%
BRANCH_INDIRECT: 204034 0.408068%
BRANCH_CONDITIONAL: 6212961 12.4259%
BRANCH_DIRECT_CALL: 932391 1.86478%
BRANCH_INDIRECT_CALL: 173764 0.347528%
BRANCH_RETURN: 1106152 2.2123%
BRANCH_OTHER: 0 0%

