Initialize SIGNATURE TABLE
ST_SET: 1
ST_WAY: 256
ST_TAG_BIT: 16
ST_TAG_MASK: ffff

Initialize PATTERN TABLE
PT_SET: 512
PT_WAY: 4
SIG_DELTA_BIT: 7
C_SIG_BIT: 4
C_DELTA_BIT: 4

Initialize PREFETCH FILTER
FILTER_SET: 1024

*** ChampSim Multicore Out-of-Order Simulator ***

Warmup Instructions: 50000000
Simulation Instructions: 50000000
Number of CPUs: 1
LLC sets: 2048
LLC ways: 16
Off-chip DRAM Size: 4096 MB Channels: 1 Width: 64-bit Data Rate: 3200 MT/s

CPU 0 runs /home/mbaradaran/ChampSim/dpc3_traces/server_032.champsimtrace.xz
CPU 0 L1I next line prefetcher
CPU 0 L1D next line prefetcher
Heartbeat CPU 0 instructions: 10000002 cycles: 3521378 heartbeat IPC: 2.8398 cumulative IPC: 2.8398 (Simulation time: 0 hr 1 min 44 sec) 
Heartbeat CPU 0 instructions: 20000003 cycles: 7043929 heartbeat IPC: 2.83885 cumulative IPC: 2.83932 (Simulation time: 0 hr 3 min 28 sec) 
Heartbeat CPU 0 instructions: 30000000 cycles: 10566471 heartbeat IPC: 2.83886 cumulative IPC: 2.83917 (Simulation time: 0 hr 5 min 19 sec) 
Heartbeat CPU 0 instructions: 40000003 cycles: 14090255 heartbeat IPC: 2.83786 cumulative IPC: 2.83884 (Simulation time: 0 hr 7 min 5 sec) 
Heartbeat CPU 0 instructions: 50000000 cycles: 17613022 heartbeat IPC: 2.83868 cumulative IPC: 2.83881 (Simulation time: 0 hr 8 min 53 sec) 

Warmup complete CPU 0 instructions: 50000004 cycles: 17613023 (Simulation time: 0 hr 8 min 53 sec) 

Heartbeat CPU 0 instructions: 60000002 cycles: 24369956 heartbeat IPC: 1.47996 cumulative IPC: 1.47996 (Simulation time: 0 hr 10 min 53 sec) 
Heartbeat CPU 0 instructions: 70000000 cycles: 31122942 heartbeat IPC: 1.48083 cumulative IPC: 1.48039 (Simulation time: 0 hr 12 min 41 sec) 
*** Reached end of trace for Core: 0 Repeating trace: /home/mbaradaran/ChampSim/dpc3_traces/server_032.champsimtrace.xz
Heartbeat CPU 0 instructions: 80000003 cycles: 37872476 heartbeat IPC: 1.48158 cumulative IPC: 1.48079 (Simulation time: 0 hr 14 min 30 sec) 
Heartbeat CPU 0 instructions: 90000002 cycles: 44596884 heartbeat IPC: 1.48712 cumulative IPC: 1.48237 (Simulation time: 0 hr 16 min 24 sec) 
Heartbeat CPU 0 instructions: 100000001 cycles: 51338173 heartbeat IPC: 1.4834 cumulative IPC: 1.48257 (Simulation time: 0 hr 18 min 27 sec) 
Finished CPU 0 instructions: 50000002 cycles: 33725152 cumulative IPC: 1.48257 (Simulation time: 0 hr 18 min 27 sec) 

ChampSim completed all CPUs

Region of Interest Statistics

CPU 0 cumulative IPC: 1.48257 instructions: 50000002 cycles: 33725152

SHEET
IPC : 1.48257

L1D TOTAL     ACCESS:   19805314  HIT:   17977109  MISS:    1828205
L1D LOAD      ACCESS:    6769490  HIT:    5974569  MISS:     794921
L1D RFO       ACCESS:    6548356  HIT:    6254491  MISS:     293865
L1D PREFETCH  ACCESS:    6487468  HIT:    5748049  MISS:     739419
L1D WRITEBACK ACCESS:          0  HIT:          0  MISS:          0
L1D PREFETCH  REQUESTED:    6820536  ISSUED:    6682821  USEFUL:     169339  USELESS:     570079
L1D AVERAGE MISS LATENCY: 19.4365 cycles
L1D

SHEET
L1D-total_access : 19805314
L1D-total_hit : 17977109
L1D-total_miss : 1828205
L1D-load_access : 6769490
L1D-load_hit : 5974569
L1D-load_miss : 794921
L1D-rfo_access : 6548356
L1D-rfo_hit : 6254491
L1D-rfo_miss : 293865
L1D-prefetch_access : 6487468
L1D-prefetch_hit : 5748049
L1D-prefetch_miss : 739419
L1D-writeback_access : 0
L1D-writeback_hit : 0
L1D-writeback_miss : 0
L1D-prefetch_requested : 6820536
L1D-prefetch_issued : 6682821
L1D-prefetch_useful : 169339
L1D-prefetch_useless : 570079
L1D-Avg_miss_latency : 19.4365

L1I TOTAL     ACCESS:   15134505  HIT:   11150417  MISS:    3984088
L1I LOAD      ACCESS:    9689058  HIT:    9597750  MISS:      91308
L1I RFO       ACCESS:          0  HIT:          0  MISS:          0
L1I PREFETCH  ACCESS:    5445447  HIT:    1552667  MISS:    3892780
L1I WRITEBACK ACCESS:          0  HIT:          0  MISS:          0
L1I PREFETCH  REQUESTED:    5714269  ISSUED:    5714269  USEFUL:    3155817  USELESS:     736973
L1I AVERAGE MISS LATENCY: 17.4642 cycles
L1I

SHEET
L1I-total_access : 15134505
L1I-total_hit : 11150417
L1I-total_miss : 3984088
L1I-load_access : 9689058
L1I-load_hit : 9597750
L1I-load_miss : 91308
L1I-rfo_access : 0
L1I-rfo_hit : 0
L1I-rfo_miss : 0
L1I-prefetch_access : 5445447
L1I-prefetch_hit : 1552667
L1I-prefetch_miss : 3892780
L1I-writeback_access : 0
L1I-writeback_hit : 0
L1I-writeback_miss : 0
L1I-prefetch_requested : 5714269
L1I-prefetch_issued : 5714269
L1I-prefetch_useful : 3155817
L1I-prefetch_useless : 736973
L1I-Avg_miss_latency : 17.4642

L2C TOTAL     ACCESS:    8018819  HIT:    7353934  MISS:     664885
L2C LOAD      ACCESS:     786039  HIT:     689611  MISS:      96428
L2C RFO       ACCESS:     292353  HIT:     236652  MISS:      55701
L2C PREFETCH  ACCESS:    6304015  HIT:    5803769  MISS:     500246
L2C WRITEBACK ACCESS:     636412  HIT:     623902  MISS:      12510
L2C PREFETCH  REQUESTED:    7629031  ISSUED:    7608219  USEFUL:       7109  USELESS:     492957
L2C AVERAGE MISS LATENCY: 33.4202 cycles
L2C

SHEET
L2C-total_access : 8018819
L2C-total_hit : 7353934
L2C-total_miss : 664885
L2C-load_access : 786039
L2C-load_hit : 689611
L2C-load_miss : 96428
L2C-rfo_access : 292353
L2C-rfo_hit : 236652
L2C-rfo_miss : 55701
L2C-prefetch_access : 6304015
L2C-prefetch_hit : 5803769
L2C-prefetch_miss : 500246
L2C-writeback_access : 636412
L2C-writeback_hit : 623902
L2C-writeback_miss : 12510
L2C-prefetch_requested : 7629031
L2C-prefetch_issued : 7608219
L2C-prefetch_useful : 7109
L2C-prefetch_useless : 492957
L2C-Avg_miss_latency : 33.4202

LLC TOTAL     ACCESS:    2522503  HIT:    2515535  MISS:       6968
LLC LOAD      ACCESS:      96425  HIT:      95963  MISS:        462
LLC RFO       ACCESS:      55676  HIT:      55676  MISS:          0
LLC PREFETCH  ACCESS:    2266582  HIT:    2260111  MISS:       6471
LLC WRITEBACK ACCESS:     103820  HIT:     103785  MISS:         35
LLC PREFETCH  REQUESTED:          0  ISSUED:          0  USEFUL:        411  USELESS:       2445
LLC AVERAGE MISS LATENCY: 150.041 cycles
LLC

SHEET
LLC-total_access : 2522503
LLC-total_hit : 2515535
LLC-total_miss : 6968
LLC-load_access : 96425
LLC-load_hit : 95963
LLC-load_miss : 462
LLC-rfo_access : 55676
LLC-rfo_hit : 55676
LLC-rfo_miss : 0
LLC-prefetch_access : 2266583
LLC-prefetch_hit : 2260112
LLC-prefetch_miss : 6471
LLC-writeback_access : 103820
LLC-writeback_hit : 103785
LLC-writeback_miss : 35
LLC-prefetch_requested : 0
LLC-prefetch_issued : 0
LLC-prefetch_useful : 411
LLC-prefetch_useless : 2445
LLC-Avg_miss_latency : 150.041

Major fault: 0 Minor fault: 1179
I-Shadow cache 408 bytes
Touched + WorthPF tables 24576 bytes 
MMA filter 174 bytes 
FNL filter 272 bytes 
TOTAL PREFETCHER STORAGE SIZE: 98134 bytes
CPU 0 L1I next line prefetcher final stats

 morteza stats start 

SHEET
fnlfilter_access_cntr : 31158270
iShadow_access_cntr : 42729128
missahead_access_cntr : 8499666
mmafilter_access_cntr : 14944215
touched_access_cntr : 75229590
worthpf_access_cntr : 31255793


morteza stats endCPU 0 L1D next line prefetcher final stats

DRAM Statistics
 CHANNEL 0
 RQ ROW_BUFFER_HIT:       1701  ROW_BUFFER_MISS:       5232
 DBUS_CONGESTED:        896
 WQ ROW_BUFFER_HIT:          0  ROW_BUFFER_MISS:          7  FULL:          0

 AVG_CONGESTED_CYCLE: 4

CPU 0 Branch Prediction Accuracy: 99.8762% MPKI: 0.2296 Average ROB Occupancy at Mispredict: 189.436

Branch types
NOT_BRANCH: 40726136 81.4523%
BRANCH_DIRECT_JUMP: 508374 1.01675%
BRANCH_INDIRECT: 180051 0.360102%
BRANCH_CONDITIONAL: 5999661 11.9993%
BRANCH_DIRECT_CALL: 1086739 2.17348%
BRANCH_INDIRECT_CALL: 206109 0.412218%
BRANCH_RETURN: 1292837 2.58567%
BRANCH_OTHER: 0 0%

