Initialize SIGNATURE TABLE
ST_SET: 1
ST_WAY: 256
ST_TAG_BIT: 16
ST_TAG_MASK: ffff

Initialize PATTERN TABLE
PT_SET: 512
PT_WAY: 4
SIG_DELTA_BIT: 7
C_SIG_BIT: 4
C_DELTA_BIT: 4

Initialize PREFETCH FILTER
FILTER_SET: 1024

*** ChampSim Multicore Out-of-Order Simulator ***

Warmup Instructions: 50000000
Simulation Instructions: 50000000
Number of CPUs: 1
LLC sets: 2048
LLC ways: 16
Off-chip DRAM Size: 4096 MB Channels: 1 Width: 64-bit Data Rate: 3200 MT/s

CPU 0 runs /home/mbaradaran/ChampSim/dpc3_traces/server_029.champsimtrace.xz
CPU 0 L1I next line prefetcher
CPU 0 L1D next line prefetcher
Heartbeat CPU 0 instructions: 10000001 cycles: 3489735 heartbeat IPC: 2.86555 cumulative IPC: 2.86555 (Simulation time: 0 hr 1 min 51 sec) 
Heartbeat CPU 0 instructions: 20000002 cycles: 6979789 heartbeat IPC: 2.86529 cumulative IPC: 2.86542 (Simulation time: 0 hr 3 min 34 sec) 
Heartbeat CPU 0 instructions: 30000003 cycles: 10471311 heartbeat IPC: 2.86408 cumulative IPC: 2.86497 (Simulation time: 0 hr 5 min 28 sec) 
Heartbeat CPU 0 instructions: 40000000 cycles: 13969074 heartbeat IPC: 2.85897 cumulative IPC: 2.86347 (Simulation time: 0 hr 7 min 24 sec) 
Heartbeat CPU 0 instructions: 50000000 cycles: 17466055 heartbeat IPC: 2.85961 cumulative IPC: 2.8627 (Simulation time: 0 hr 9 min 21 sec) 

Warmup complete CPU 0 instructions: 50000004 cycles: 17466056 (Simulation time: 0 hr 9 min 21 sec) 

Heartbeat CPU 0 instructions: 60000000 cycles: 25008015 heartbeat IPC: 1.32592 cumulative IPC: 1.32591 (Simulation time: 0 hr 11 min 25 sec) 
Heartbeat CPU 0 instructions: 70000003 cycles: 32689592 heartbeat IPC: 1.30182 cumulative IPC: 1.31376 (Simulation time: 0 hr 13 min 24 sec) 
Heartbeat CPU 0 instructions: 80000002 cycles: 40208523 heartbeat IPC: 1.32998 cumulative IPC: 1.31912 (Simulation time: 0 hr 15 min 27 sec) 
*** Reached end of trace for Core: 0 Repeating trace: /home/mbaradaran/ChampSim/dpc3_traces/server_029.champsimtrace.xz
Heartbeat CPU 0 instructions: 90000000 cycles: 47650549 heartbeat IPC: 1.34372 cumulative IPC: 1.32518 (Simulation time: 0 hr 17 min 20 sec) 
Heartbeat CPU 0 instructions: 100000003 cycles: 55077443 heartbeat IPC: 1.34646 cumulative IPC: 1.32938 (Simulation time: 0 hr 19 min 26 sec) 
Finished CPU 0 instructions: 50000003 cycles: 37611388 cumulative IPC: 1.32938 (Simulation time: 0 hr 19 min 26 sec) 

ChampSim completed all CPUs

Region of Interest Statistics

CPU 0 cumulative IPC: 1.32938 instructions: 50000003 cycles: 37611388

SHEET
IPC : 1.32938

L1D TOTAL     ACCESS:   19046823  HIT:   16950459  MISS:    2096364
L1D LOAD      ACCESS:    6727993  HIT:    5661474  MISS:    1066519
L1D RFO       ACCESS:    6108867  HIT:    5823307  MISS:     285560
L1D PREFETCH  ACCESS:    6209963  HIT:    5465678  MISS:     744285
L1D WRITEBACK ACCESS:          0  HIT:          0  MISS:          0
L1D PREFETCH  REQUESTED:    6789665  ISSUED:    6682050  USEFUL:     174305  USELESS:     569970
L1D AVERAGE MISS LATENCY: 21.7319 cycles
L1D

SHEET
L1D-total_access : 19046823
L1D-total_hit : 16950459
L1D-total_miss : 2096364
L1D-load_access : 6727993
L1D-load_hit : 5661474
L1D-load_miss : 1066519
L1D-rfo_access : 6108867
L1D-rfo_hit : 5823307
L1D-rfo_miss : 285560
L1D-prefetch_access : 6209963
L1D-prefetch_hit : 5465678
L1D-prefetch_miss : 744285
L1D-writeback_access : 0
L1D-writeback_hit : 0
L1D-writeback_miss : 0
L1D-prefetch_requested : 6789665
L1D-prefetch_issued : 6682050
L1D-prefetch_useful : 174305
L1D-prefetch_useless : 569970
L1D-Avg_miss_latency : 21.7319

L1I TOTAL     ACCESS:   15186168  HIT:   11267688  MISS:    3918480
L1I LOAD      ACCESS:    9802728  HIT:    9712849  MISS:      89879
L1I RFO       ACCESS:          0  HIT:          0  MISS:          0
L1I PREFETCH  ACCESS:    5383440  HIT:    1554839  MISS:    3828601
L1I WRITEBACK ACCESS:          0  HIT:          0  MISS:          0
L1I PREFETCH  REQUESTED:    5625239  ISSUED:    5625222  USEFUL:    2927956  USELESS:     900705
L1I AVERAGE MISS LATENCY: 18.0668 cycles
L1I

SHEET
L1I-total_access : 15186168
L1I-total_hit : 11267688
L1I-total_miss : 3918480
L1I-load_access : 9802728
L1I-load_hit : 9712849
L1I-load_miss : 89879
L1I-rfo_access : 0
L1I-rfo_hit : 0
L1I-rfo_miss : 0
L1I-prefetch_access : 5383440
L1I-prefetch_hit : 1554839
L1I-prefetch_miss : 3828601
L1I-writeback_access : 0
L1I-writeback_hit : 0
L1I-writeback_miss : 0
L1I-prefetch_requested : 5625239
L1I-prefetch_issued : 5625222
L1I-prefetch_useful : 2927956
L1I-prefetch_useless : 900705
L1I-Avg_miss_latency : 18.0668

L2C TOTAL     ACCESS:    8260065  HIT:    7479110  MISS:     780955
L2C LOAD      ACCESS:     935730  HIT:     786311  MISS:     149419
L2C RFO       ACCESS:     283538  HIT:     229223  MISS:      54315
L2C PREFETCH  ACCESS:    6430262  HIT:    5854944  MISS:     575318
L2C WRITEBACK ACCESS:     610535  HIT:     608632  MISS:       1903
L2C PREFETCH  REQUESTED:    8155416  ISSUED:    8130032  USEFUL:      12732  USELESS:     561983
L2C AVERAGE MISS LATENCY: 41.9113 cycles
L2C

SHEET
L2C-total_access : 8260065
L2C-total_hit : 7479110
L2C-total_miss : 780955
L2C-load_access : 935730
L2C-load_hit : 786311
L2C-load_miss : 149419
L2C-rfo_access : 283538
L2C-rfo_hit : 229223
L2C-rfo_miss : 54315
L2C-prefetch_access : 6430262
L2C-prefetch_hit : 5854944
L2C-prefetch_miss : 575318
L2C-writeback_access : 610535
L2C-writeback_hit : 608632
L2C-writeback_miss : 1903
L2C-prefetch_requested : 8155416
L2C-prefetch_issued : 8130032
L2C-prefetch_useful : 12732
L2C-prefetch_useless : 561983
L2C-Avg_miss_latency : 41.9113

LLC TOTAL     ACCESS:    3000921  HIT:    2916624  MISS:      84297
LLC LOAD      ACCESS:     149336  HIT:     132119  MISS:      17217
LLC RFO       ACCESS:      54312  HIT:      50635  MISS:       3677
LLC PREFETCH  ACCESS:    2685117  HIT:    2622311  MISS:      62806
LLC WRITEBACK ACCESS:     112156  HIT:     111559  MISS:        597
LLC PREFETCH  REQUESTED:          0  ISSUED:          0  USEFUL:       2775  USELESS:      59808
LLC AVERAGE MISS LATENCY: 161.302 cycles
LLC

SHEET
LLC-total_access : 3000921
LLC-total_hit : 2916624
LLC-total_miss : 84297
LLC-load_access : 149336
LLC-load_hit : 132119
LLC-load_miss : 17217
LLC-rfo_access : 54312
LLC-rfo_hit : 50635
LLC-rfo_miss : 3677
LLC-prefetch_access : 2685117
LLC-prefetch_hit : 2622311
LLC-prefetch_miss : 62806
LLC-writeback_access : 112156
LLC-writeback_hit : 111559
LLC-writeback_miss : 597
LLC-prefetch_requested : 0
LLC-prefetch_issued : 0
LLC-prefetch_useful : 2775
LLC-prefetch_useless : 59808
LLC-Avg_miss_latency : 161.302

Major fault: 0 Minor fault: 5919
I-Shadow cache 408 bytes
Touched + WorthPF tables 24576 bytes 
MMA filter 174 bytes 
FNL filter 272 bytes 
TOTAL PREFETCHER STORAGE SIZE: 98134 bytes
CPU 0 L1I next line prefetcher final stats

 morteza stats start 

SHEET
fnlfilter_access_cntr : 29242035
iShadow_access_cntr : 42829634
missahead_access_cntr : 8636850
mmafilter_access_cntr : 14707217
touched_access_cntr : 68884760
worthpf_access_cntr : 29000121


morteza stats endCPU 0 L1D next line prefetcher final stats

DRAM Statistics
 CHANNEL 0
 RQ ROW_BUFFER_HIT:      23080  ROW_BUFFER_MISS:      60610
 DBUS_CONGESTED:      35846
 WQ ROW_BUFFER_HIT:        576  ROW_BUFFER_MISS:       4173  FULL:          0

 AVG_CONGESTED_CYCLE: 5

CPU 0 Branch Prediction Accuracy: 99.7245% MPKI: 0.51862 Average ROB Occupancy at Mispredict: 147.148

Branch types
NOT_BRANCH: 40586630 81.1733%
BRANCH_DIRECT_JUMP: 525211 1.05042%
BRANCH_INDIRECT: 166359 0.332718%
BRANCH_CONDITIONAL: 6373094 12.7462%
BRANCH_DIRECT_CALL: 989263 1.97853%
BRANCH_INDIRECT_CALL: 184984 0.369968%
BRANCH_RETURN: 1174250 2.3485%
BRANCH_OTHER: 0 0%

