Initialize SIGNATURE TABLE
ST_SET: 1
ST_WAY: 256
ST_TAG_BIT: 16
ST_TAG_MASK: ffff

Initialize PATTERN TABLE
PT_SET: 512
PT_WAY: 4
SIG_DELTA_BIT: 7
C_SIG_BIT: 4
C_DELTA_BIT: 4

Initialize PREFETCH FILTER
FILTER_SET: 1024

*** ChampSim Multicore Out-of-Order Simulator ***

Warmup Instructions: 50000000
Simulation Instructions: 50000000
Number of CPUs: 1
LLC sets: 2048
LLC ways: 16
Off-chip DRAM Size: 4096 MB Channels: 1 Width: 64-bit Data Rate: 3200 MT/s

CPU 0 runs /home/mbaradaran/ChampSim/dpc3_traces/server_028.champsimtrace.xz
CPU 0 L1I next line prefetcher
CPU 0 L1D next line prefetcher
Heartbeat CPU 0 instructions: 10000001 cycles: 3495054 heartbeat IPC: 2.86119 cumulative IPC: 2.86119 (Simulation time: 0 hr 1 min 53 sec) 
Heartbeat CPU 0 instructions: 20000002 cycles: 6989744 heartbeat IPC: 2.86148 cumulative IPC: 2.86134 (Simulation time: 0 hr 3 min 41 sec) 
Heartbeat CPU 0 instructions: 30000001 cycles: 10482828 heartbeat IPC: 2.8628 cumulative IPC: 2.86182 (Simulation time: 0 hr 5 min 37 sec) 
Heartbeat CPU 0 instructions: 40000002 cycles: 13982063 heartbeat IPC: 2.85777 cumulative IPC: 2.86081 (Simulation time: 0 hr 7 min 24 sec) 
Heartbeat CPU 0 instructions: 50000001 cycles: 17477585 heartbeat IPC: 2.8608 cumulative IPC: 2.86081 (Simulation time: 0 hr 9 min 22 sec) 

Warmup complete CPU 0 instructions: 50000001 cycles: 17477585 (Simulation time: 0 hr 9 min 22 sec) 

Heartbeat CPU 0 instructions: 60000000 cycles: 25011014 heartbeat IPC: 1.32742 cumulative IPC: 1.32742 (Simulation time: 0 hr 11 min 19 sec) 
Heartbeat CPU 0 instructions: 70000000 cycles: 32556798 heartbeat IPC: 1.32524 cumulative IPC: 1.32633 (Simulation time: 0 hr 13 min 23 sec) 
Heartbeat CPU 0 instructions: 80000000 cycles: 40085724 heartbeat IPC: 1.32821 cumulative IPC: 1.32696 (Simulation time: 0 hr 15 min 20 sec) 
*** Reached end of trace for Core: 0 Repeating trace: /home/mbaradaran/ChampSim/dpc3_traces/server_028.champsimtrace.xz
Heartbeat CPU 0 instructions: 90000000 cycles: 47593816 heartbeat IPC: 1.3319 cumulative IPC: 1.32819 (Simulation time: 0 hr 17 min 23 sec) 
Heartbeat CPU 0 instructions: 100000003 cycles: 55062320 heartbeat IPC: 1.33896 cumulative IPC: 1.33033 (Simulation time: 0 hr 19 min 16 sec) 
Finished CPU 0 instructions: 50000002 cycles: 37584735 cumulative IPC: 1.33033 (Simulation time: 0 hr 19 min 16 sec) 

ChampSim completed all CPUs

Region of Interest Statistics

CPU 0 cumulative IPC: 1.33033 instructions: 50000002 cycles: 37584735

SHEET
IPC : 1.33033

L1D TOTAL     ACCESS:   19043286  HIT:   16969818  MISS:    2073468
L1D LOAD      ACCESS:    6722696  HIT:    5673895  MISS:    1048801
L1D RFO       ACCESS:    6104465  HIT:    5820500  MISS:     283965
L1D PREFETCH  ACCESS:    6216125  HIT:    5475423  MISS:     740702
L1D WRITEBACK ACCESS:          0  HIT:          0  MISS:          0
L1D PREFETCH  REQUESTED:    6782427  ISSUED:    6673622  USEFUL:     174146  USELESS:     566559
L1D AVERAGE MISS LATENCY: 22.283 cycles
L1D

SHEET
L1D-total_access : 19043286
L1D-total_hit : 16969818
L1D-total_miss : 2073468
L1D-load_access : 6722696
L1D-load_hit : 5673895
L1D-load_miss : 1048801
L1D-rfo_access : 6104465
L1D-rfo_hit : 5820500
L1D-rfo_miss : 283965
L1D-prefetch_access : 6216125
L1D-prefetch_hit : 5475423
L1D-prefetch_miss : 740702
L1D-writeback_access : 0
L1D-writeback_hit : 0
L1D-writeback_miss : 0
L1D-prefetch_requested : 6782427
L1D-prefetch_issued : 6673622
L1D-prefetch_useful : 174146
L1D-prefetch_useless : 566559
L1D-Avg_miss_latency : 22.283

L1I TOTAL     ACCESS:   15155789  HIT:   11245294  MISS:    3910495
L1I LOAD      ACCESS:    9767372  HIT:    9689129  MISS:      78243
L1I RFO       ACCESS:          0  HIT:          0  MISS:          0
L1I PREFETCH  ACCESS:    5388417  HIT:    1556165  MISS:    3832252
L1I WRITEBACK ACCESS:          0  HIT:          0  MISS:          0
L1I PREFETCH  REQUESTED:    5605851  ISSUED:    5605851  USEFUL:    2910011  USELESS:     922242
L1I AVERAGE MISS LATENCY: 18.3179 cycles
L1I

SHEET
L1I-total_access : 15155789
L1I-total_hit : 11245294
L1I-total_miss : 3910495
L1I-load_access : 9767372
L1I-load_hit : 9689129
L1I-load_miss : 78243
L1I-rfo_access : 0
L1I-rfo_hit : 0
L1I-rfo_miss : 0
L1I-prefetch_access : 5388417
L1I-prefetch_hit : 1556165
L1I-prefetch_miss : 3832252
L1I-writeback_access : 0
L1I-writeback_hit : 0
L1I-writeback_miss : 0
L1I-prefetch_requested : 5605851
L1I-prefetch_issued : 5605851
L1I-prefetch_useful : 2910011
L1I-prefetch_useless : 922242
L1I-Avg_miss_latency : 18.3179

L2C TOTAL     ACCESS:    8288227  HIT:    7430498  MISS:     857729
L2C LOAD      ACCESS:     920028  HIT:     745054  MISS:     174974
L2C RFO       ACCESS:     281705  HIT:     218821  MISS:      62884
L2C PREFETCH  ACCESS:    6481418  HIT:    5865259  MISS:     616159
L2C WRITEBACK ACCESS:     605076  HIT:     601364  MISS:       3712
L2C PREFETCH  REQUESTED:    8140127  ISSUED:    8116835  USEFUL:      12828  USELESS:     603011
L2C AVERAGE MISS LATENCY: 40.0158 cycles
L2C

SHEET
L2C-total_access : 8288227
L2C-total_hit : 7430498
L2C-total_miss : 857729
L2C-load_access : 920028
L2C-load_hit : 745054
L2C-load_miss : 174974
L2C-rfo_access : 281705
L2C-rfo_hit : 218821
L2C-rfo_miss : 62884
L2C-prefetch_access : 6481418
L2C-prefetch_hit : 5865259
L2C-prefetch_miss : 616159
L2C-writeback_access : 605076
L2C-writeback_hit : 601364
L2C-writeback_miss : 3712
L2C-prefetch_requested : 8140127
L2C-prefetch_issued : 8116835
L2C-prefetch_useful : 12828
L2C-prefetch_useless : 603011
L2C-Avg_miss_latency : 40.0158

LLC TOTAL     ACCESS:    3021054  HIT:    2946661  MISS:      74393
LLC LOAD      ACCESS:     174789  HIT:     158661  MISS:      16128
LLC RFO       ACCESS:      62881  HIT:      60935  MISS:       1946
LLC PREFETCH  ACCESS:    2669711  HIT:    2613855  MISS:      55856
LLC WRITEBACK ACCESS:     113673  HIT:     113210  MISS:        463
LLC PREFETCH  REQUESTED:          0  ISSUED:          0  USEFUL:       2461  USELESS:      52459
LLC AVERAGE MISS LATENCY: 158.454 cycles
LLC

SHEET
LLC-total_access : 3021054
LLC-total_hit : 2946661
LLC-total_miss : 74393
LLC-load_access : 174789
LLC-load_hit : 158661
LLC-load_miss : 16128
LLC-rfo_access : 62881
LLC-rfo_hit : 60935
LLC-rfo_miss : 1946
LLC-prefetch_access : 2669711
LLC-prefetch_hit : 2613855
LLC-prefetch_miss : 55856
LLC-writeback_access : 113673
LLC-writeback_hit : 113210
LLC-writeback_miss : 463
LLC-prefetch_requested : 0
LLC-prefetch_issued : 0
LLC-prefetch_useful : 2461
LLC-prefetch_useless : 52459
LLC-Avg_miss_latency : 158.454

Major fault: 0 Minor fault: 6038
I-Shadow cache 408 bytes
Touched + WorthPF tables 24576 bytes 
MMA filter 174 bytes 
FNL filter 272 bytes 
TOTAL PREFETCHER STORAGE SIZE: 98134 bytes
CPU 0 L1I next line prefetcher final stats

 morteza stats start 

SHEET
fnlfilter_access_cntr : 29222733
iShadow_access_cntr : 42786036
missahead_access_cntr : 8748405
mmafilter_access_cntr : 14697992
touched_access_cntr : 68546920
worthpf_access_cntr : 28966988


morteza stats endCPU 0 L1D next line prefetcher final stats

DRAM Statistics
 CHANNEL 0
 RQ ROW_BUFFER_HIT:      20258  ROW_BUFFER_MISS:      53672
 DBUS_CONGESTED:      32346
 WQ ROW_BUFFER_HIT:        372  ROW_BUFFER_MISS:       3389  FULL:          0

 AVG_CONGESTED_CYCLE: 5

CPU 0 Branch Prediction Accuracy: 99.7093% MPKI: 0.54708 Average ROB Occupancy at Mispredict: 152.189

Branch types
NOT_BRANCH: 40590920 81.1818%
BRANCH_DIRECT_JUMP: 523494 1.04699%
BRANCH_INDIRECT: 166997 0.333994%
BRANCH_CONDITIONAL: 6365181 12.7304%
BRANCH_DIRECT_CALL: 989493 1.97899%
BRANCH_INDIRECT_CALL: 187203 0.374406%
BRANCH_RETURN: 1176698 2.3534%
BRANCH_OTHER: 0 0%

