Initialize SIGNATURE TABLE
ST_SET: 1
ST_WAY: 256
ST_TAG_BIT: 16
ST_TAG_MASK: ffff

Initialize PATTERN TABLE
PT_SET: 512
PT_WAY: 4
SIG_DELTA_BIT: 7
C_SIG_BIT: 4
C_DELTA_BIT: 4

Initialize PREFETCH FILTER
FILTER_SET: 1024

*** ChampSim Multicore Out-of-Order Simulator ***

Warmup Instructions: 50000000
Simulation Instructions: 50000000
Number of CPUs: 1
LLC sets: 2048
LLC ways: 16
Off-chip DRAM Size: 4096 MB Channels: 1 Width: 64-bit Data Rate: 3200 MT/s

CPU 0 runs /home/mbaradaran/ChampSim/dpc3_traces/spec_gobmk_002.champsimtrace.xz
CPU 0 L1I next line prefetcher
CPU 0 L1D next line prefetcher
Heartbeat CPU 0 instructions: 10000001 cycles: 3287482 heartbeat IPC: 3.04184 cumulative IPC: 3.04184 (Simulation time: 0 hr 1 min 20 sec) 
Heartbeat CPU 0 instructions: 20000000 cycles: 6619081 heartbeat IPC: 3.00156 cumulative IPC: 3.02157 (Simulation time: 0 hr 2 min 25 sec) 
Heartbeat CPU 0 instructions: 30000000 cycles: 9957028 heartbeat IPC: 2.99585 cumulative IPC: 3.01295 (Simulation time: 0 hr 3 min 22 sec) 
Heartbeat CPU 0 instructions: 40000000 cycles: 13266401 heartbeat IPC: 3.02172 cumulative IPC: 3.01514 (Simulation time: 0 hr 4 min 23 sec) 
Heartbeat CPU 0 instructions: 50000003 cycles: 16529905 heartbeat IPC: 3.06419 cumulative IPC: 3.02482 (Simulation time: 0 hr 5 min 21 sec) 

Warmup complete CPU 0 instructions: 50000003 cycles: 16529905 (Simulation time: 0 hr 5 min 21 sec) 

Heartbeat CPU 0 instructions: 60000003 cycles: 24002078 heartbeat IPC: 1.3383 cumulative IPC: 1.3383 (Simulation time: 0 hr 6 min 6 sec) 
Heartbeat CPU 0 instructions: 70000000 cycles: 31428796 heartbeat IPC: 1.34649 cumulative IPC: 1.34238 (Simulation time: 0 hr 6 min 53 sec) 
Heartbeat CPU 0 instructions: 80000000 cycles: 38708830 heartbeat IPC: 1.37362 cumulative IPC: 1.35264 (Simulation time: 0 hr 7 min 39 sec) 
Heartbeat CPU 0 instructions: 90000001 cycles: 46300864 heartbeat IPC: 1.31717 cumulative IPC: 1.34359 (Simulation time: 0 hr 8 min 22 sec) 
Heartbeat CPU 0 instructions: 100000003 cycles: 54126516 heartbeat IPC: 1.27785 cumulative IPC: 1.32991 (Simulation time: 0 hr 9 min 7 sec) 
Finished CPU 0 instructions: 50000000 cycles: 37596611 cumulative IPC: 1.32991 (Simulation time: 0 hr 9 min 7 sec) 

ChampSim completed all CPUs

Region of Interest Statistics

CPU 0 cumulative IPC: 1.32991 instructions: 50000000 cycles: 37596611

SHEET
IPC : 1.32991

L1D TOTAL     ACCESS:   17654213  HIT:   17531078  MISS:     123135
L1D LOAD      ACCESS:    6672324  HIT:    6638083  MISS:      34241
L1D RFO       ACCESS:    4388068  HIT:    4345375  MISS:      42693
L1D PREFETCH  ACCESS:    6593821  HIT:    6547620  MISS:      46201
L1D WRITEBACK ACCESS:          0  HIT:          0  MISS:          0
L1D PREFETCH  REQUESTED:    6674793  ISSUED:    6607338  USEFUL:      17134  USELESS:      29249
L1D AVERAGE MISS LATENCY: 49.9296 cycles
L1D

SHEET
L1D-total_access : 17654213
L1D-total_hit : 17531078
L1D-total_miss : 123135
L1D-load_access : 6672324
L1D-load_hit : 6638083
L1D-load_miss : 34241
L1D-rfo_access : 4388068
L1D-rfo_hit : 4345375
L1D-rfo_miss : 42693
L1D-prefetch_access : 6593821
L1D-prefetch_hit : 6547620
L1D-prefetch_miss : 46201
L1D-writeback_access : 0
L1D-writeback_hit : 0
L1D-writeback_miss : 0
L1D-prefetch_requested : 6674793
L1D-prefetch_issued : 6607338
L1D-prefetch_useful : 17134
L1D-prefetch_useless : 29249
L1D-Avg_miss_latency : 49.9296

L1I TOTAL     ACCESS:   13521644  HIT:   11899332  MISS:    1622312
L1I LOAD      ACCESS:    8859941  HIT:    8700655  MISS:     159286
L1I RFO       ACCESS:          0  HIT:          0  MISS:          0
L1I PREFETCH  ACCESS:    4661703  HIT:    3198677  MISS:    1463026
L1I WRITEBACK ACCESS:          0  HIT:          0  MISS:          0
L1I PREFETCH  REQUESTED:    4818683  ISSUED:    4818661  USEFUL:     814024  USELESS:     649015
L1I AVERAGE MISS LATENCY: 14.4363 cycles
L1I

SHEET
L1I-total_access : 13521644
L1I-total_hit : 11899332
L1I-total_miss : 1622312
L1I-load_access : 8859941
L1I-load_hit : 8700655
L1I-load_miss : 159286
L1I-rfo_access : 0
L1I-rfo_hit : 0
L1I-rfo_miss : 0
L1I-prefetch_access : 4661703
L1I-prefetch_hit : 3198677
L1I-prefetch_miss : 1463026
L1I-writeback_access : 0
L1I-writeback_hit : 0
L1I-writeback_miss : 0
L1I-prefetch_requested : 4818683
L1I-prefetch_issued : 4818661
L1I-prefetch_useful : 814024
L1I-prefetch_useless : 649015
L1I-Avg_miss_latency : 14.4363

L2C TOTAL     ACCESS:    2631064  HIT:    2593636  MISS:      37428
L2C LOAD      ACCESS:     167841  HIT:     153877  MISS:      13964
L2C RFO       ACCESS:      42567  HIT:      39692  MISS:       2875
L2C PREFETCH  ACCESS:    2346447  HIT:    2325992  MISS:      20455
L2C WRITEBACK ACCESS:      74209  HIT:      74075  MISS:        134
L2C PREFETCH  REQUESTED:    2083915  ISSUED:    2083875  USEFUL:       2261  USELESS:      18631
L2C AVERAGE MISS LATENCY: 123.182 cycles
L2C

SHEET
L2C-total_access : 2631064
L2C-total_hit : 2593636
L2C-total_miss : 37428
L2C-load_access : 167841
L2C-load_hit : 153877
L2C-load_miss : 13964
L2C-rfo_access : 42567
L2C-rfo_hit : 39692
L2C-rfo_miss : 2875
L2C-prefetch_access : 2346447
L2C-prefetch_hit : 2325992
L2C-prefetch_miss : 20455
L2C-writeback_access : 74209
L2C-writeback_hit : 74075
L2C-writeback_miss : 134
L2C-prefetch_requested : 2083915
L2C-prefetch_issued : 2083875
L2C-prefetch_useful : 2261
L2C-prefetch_useless : 18631
L2C-Avg_miss_latency : 123.182

LLC TOTAL     ACCESS:     174409  HIT:     138894  MISS:      35515
LLC LOAD      ACCESS:      13963  HIT:       5451  MISS:       8512
LLC RFO       ACCESS:       2875  HIT:       1273  MISS:       1602
LLC PREFETCH  ACCESS:     139468  HIT:     114643  MISS:      24825
LLC WRITEBACK ACCESS:      18103  HIT:      17527  MISS:        576
LLC PREFETCH  REQUESTED:          0  ISSUED:          0  USEFUL:       2466  USELESS:      21966
LLC AVERAGE MISS LATENCY: 184.269 cycles
LLC

SHEET
LLC-total_access : 174409
LLC-total_hit : 138894
LLC-total_miss : 35515
LLC-load_access : 13963
LLC-load_hit : 5451
LLC-load_miss : 8512
LLC-rfo_access : 2875
LLC-rfo_hit : 1273
LLC-rfo_miss : 1602
LLC-prefetch_access : 139468
LLC-prefetch_hit : 114643
LLC-prefetch_miss : 24825
LLC-writeback_access : 18103
LLC-writeback_hit : 17527
LLC-writeback_miss : 576
LLC-prefetch_requested : 0
LLC-prefetch_issued : 0
LLC-prefetch_useful : 2466
LLC-prefetch_useless : 21966
LLC-Avg_miss_latency : 184.269

Major fault: 0 Minor fault: 2777
I-Shadow cache 408 bytes
Touched + WorthPF tables 24576 bytes 
MMA filter 174 bytes 
FNL filter 272 bytes 
TOTAL PREFETCHER STORAGE SIZE: 98134 bytes
CPU 0 L1I next line prefetcher final stats

 morteza stats start 

SHEET
fnlfilter_access_cntr : 24811408
iShadow_access_cntr : 39816632
missahead_access_cntr : 6244692
mmafilter_access_cntr : 6742973
touched_access_cntr : 40260580
worthpf_access_cntr : 23566605


morteza stats endCPU 0 L1D next line prefetcher final stats

DRAM Statistics
 CHANNEL 0
 RQ ROW_BUFFER_HIT:       2833  ROW_BUFFER_MISS:      32106
 DBUS_CONGESTED:      19110
 WQ ROW_BUFFER_HIT:        808  ROW_BUFFER_MISS:      13780  FULL:          0

 AVG_CONGESTED_CYCLE: 4

CPU 0 Branch Prediction Accuracy: 93.9974% MPKI: 10.2447 Average ROB Occupancy at Mispredict: 39.4411

Branch types
NOT_BRANCH: 41466055 82.9321%
BRANCH_DIRECT_JUMP: 464313 0.928626%
BRANCH_INDIRECT: 32 6.4e-05%
BRANCH_CONDITIONAL: 7069452 14.1389%
BRANCH_DIRECT_CALL: 499587 0.999174%
BRANCH_INDIRECT_CALL: 342 0.000684%
BRANCH_RETURN: 499906 0.999812%
BRANCH_OTHER: 0 0%

