Initialize SIGNATURE TABLE
ST_SET: 1
ST_WAY: 256
ST_TAG_BIT: 16
ST_TAG_MASK: ffff

Initialize PATTERN TABLE
PT_SET: 512
PT_WAY: 4
SIG_DELTA_BIT: 7
C_SIG_BIT: 4
C_DELTA_BIT: 4

Initialize PREFETCH FILTER
FILTER_SET: 1024
MANA initialize 
tds: 2 tdm: 4
size MANA SINGLE: 74 KB
size MANA NULTIPLE: 43 KB
size HOBPT: 5 KB
size SRQ: 0.14502 KB
size SABs: 0.290039 KB
size prefetch queue: 0.453125 KB
total: 122.888 KB

*** ChampSim Multicore Out-of-Order Simulator ***

Warmup Instructions: 50000000
Simulation Instructions: 50000000
Number of CPUs: 1
LLC sets: 2048
LLC ways: 16
Off-chip DRAM Size: 4096 MB Channels: 1 Width: 64-bit Data Rate: 3200 MT/s

CPU 0 runs /home/mbaradaran/ChampSim/dpc3_traces/server_031.champsimtrace.xz
CPU 0 L1D next line prefetcher
Heartbeat CPU 0 instructions: 10000003 cycles: 3529872 heartbeat IPC: 2.83296 cumulative IPC: 2.83296 (Simulation time: 0 hr 1 min 48 sec) 
Heartbeat CPU 0 instructions: 20000002 cycles: 7058366 heartbeat IPC: 2.83407 cumulative IPC: 2.83352 (Simulation time: 0 hr 3 min 42 sec) 
Heartbeat CPU 0 instructions: 30000002 cycles: 10587700 heartbeat IPC: 2.8334 cumulative IPC: 2.83348 (Simulation time: 0 hr 5 min 44 sec) 
Heartbeat CPU 0 instructions: 40000003 cycles: 14112596 heartbeat IPC: 2.83696 cumulative IPC: 2.83435 (Simulation time: 0 hr 7 min 40 sec) 
Heartbeat CPU 0 instructions: 50000001 cycles: 17638866 heartbeat IPC: 2.83586 cumulative IPC: 2.83465 (Simulation time: 0 hr 9 min 36 sec) 

Warmup complete CPU 0 instructions: 50000001 cycles: 17638866 (Simulation time: 0 hr 9 min 36 sec) 

Heartbeat CPU 0 instructions: 60000001 cycles: 25289166 heartbeat IPC: 1.30714 cumulative IPC: 1.30714 (Simulation time: 0 hr 11 min 38 sec) 
Heartbeat CPU 0 instructions: 70000002 cycles: 33033723 heartbeat IPC: 1.29123 cumulative IPC: 1.29914 (Simulation time: 0 hr 13 min 39 sec) 
*** Reached end of trace for Core: 0 Repeating trace: /home/mbaradaran/ChampSim/dpc3_traces/server_031.champsimtrace.xz
Heartbeat CPU 0 instructions: 80000000 cycles: 40598212 heartbeat IPC: 1.32197 cumulative IPC: 1.30666 (Simulation time: 0 hr 15 min 43 sec) 
Heartbeat CPU 0 instructions: 90000003 cycles: 48193112 heartbeat IPC: 1.31667 cumulative IPC: 1.30915 (Simulation time: 0 hr 17 min 43 sec) 
Heartbeat CPU 0 instructions: 100000000 cycles: 55759712 heartbeat IPC: 1.3216 cumulative IPC: 1.31162 (Simulation time: 0 hr 19 min 45 sec) 
Finished CPU 0 instructions: 50000000 cycles: 38120848 cumulative IPC: 1.31162 (Simulation time: 0 hr 19 min 45 sec) 

ChampSim completed all CPUs

Region of Interest Statistics

CPU 0 cumulative IPC: 1.31162 instructions: 50000000 cycles: 38120848

SHEET
IPC : 1.31162

L1D TOTAL     ACCESS:   19662316  HIT:   17757774  MISS:    1904542
L1D LOAD      ACCESS:    6838367  HIT:    5964791  MISS:     873576
L1D RFO       ACCESS:    6325523  HIT:    6033696  MISS:     291827
L1D PREFETCH  ACCESS:    6498426  HIT:    5759287  MISS:     739139
L1D WRITEBACK ACCESS:          0  HIT:          0  MISS:          0
L1D PREFETCH  REQUESTED:    6901185  ISSUED:    6794333  USEFUL:     173332  USELESS:     565812
L1D AVERAGE MISS LATENCY: 23.2536 cycles
L1D

SHEET
L1D-total_access : 19662316
L1D-total_hit : 17757774
L1D-total_miss : 1904542
L1D-load_access : 6838367
L1D-load_hit : 5964791
L1D-load_miss : 873576
L1D-rfo_access : 6325523
L1D-rfo_hit : 6033696
L1D-rfo_miss : 291827
L1D-prefetch_access : 6498426
L1D-prefetch_hit : 5759287
L1D-prefetch_miss : 739139
L1D-writeback_access : 0
L1D-writeback_hit : 0
L1D-writeback_miss : 0
L1D-prefetch_requested : 6901185
L1D-prefetch_issued : 6794333
L1D-prefetch_useful : 173332
L1D-prefetch_useless : 565812
L1D-Avg_miss_latency : 23.2536

L1I TOTAL     ACCESS:   17521044  HIT:   13417722  MISS:    4103322
L1I LOAD      ACCESS:    9524321  HIT:    9002468  MISS:     521853
L1I RFO       ACCESS:          0  HIT:          0  MISS:          0
L1I PREFETCH  ACCESS:    7996723  HIT:    4415254  MISS:    3581469
L1I WRITEBACK ACCESS:          0  HIT:          0  MISS:          0
L1I PREFETCH  REQUESTED:    8692723  ISSUED:    8579498  USEFUL:    2561088  USELESS:    1020378
L1I AVERAGE MISS LATENCY: 16.7343 cycles
L1I

SHEET
L1I-total_access : 17521044
L1I-total_hit : 13417722
L1I-total_miss : 4103322
L1I-load_access : 9524321
L1I-load_hit : 9002468
L1I-load_miss : 521853
L1I-rfo_access : 0
L1I-rfo_hit : 0
L1I-rfo_miss : 0
L1I-prefetch_access : 7996723
L1I-prefetch_hit : 4415254
L1I-prefetch_miss : 3581469
L1I-writeback_access : 0
L1I-writeback_hit : 0
L1I-writeback_miss : 0
L1I-prefetch_requested : 8692723
L1I-prefetch_issued : 8579498
L1I-prefetch_useful : 2561088
L1I-prefetch_useless : 1020378
L1I-Avg_miss_latency : 16.7343

L2C TOTAL     ACCESS:    8340620  HIT:    7698371  MISS:     642249
L2C LOAD      ACCESS:    1168711  HIT:    1014634  MISS:     154077
L2C RFO       ACCESS:     289551  HIT:     236409  MISS:      53142
L2C PREFETCH  ACCESS:    6265512  HIT:    5835000  MISS:     430512
L2C WRITEBACK ACCESS:     616846  HIT:     612328  MISS:       4518
L2C PREFETCH  REQUESTED:    7997921  ISSUED:    7923957  USEFUL:      17786  USELESS:     411803
L2C AVERAGE MISS LATENCY: 44.5719 cycles
L2C

SHEET
L2C-total_access : 8340620
L2C-total_hit : 7698371
L2C-total_miss : 642249
L2C-load_access : 1168711
L2C-load_hit : 1014634
L2C-load_miss : 154077
L2C-rfo_access : 289551
L2C-rfo_hit : 236409
L2C-rfo_miss : 53142
L2C-prefetch_access : 6265512
L2C-prefetch_hit : 5835000
L2C-prefetch_miss : 430512
L2C-writeback_access : 616846
L2C-writeback_hit : 612328
L2C-writeback_miss : 4518
L2C-prefetch_requested : 7997921
L2C-prefetch_issued : 7923957
L2C-prefetch_useful : 17786
L2C-prefetch_useless : 411803
L2C-Avg_miss_latency : 44.5719

LLC TOTAL     ACCESS:    3284289  HIT:    3186395  MISS:      97894
LLC LOAD      ACCESS:     154030  HIT:     134557  MISS:      19473
LLC RFO       ACCESS:      53143  HIT:      48867  MISS:       4276
LLC PREFETCH  ACCESS:    2967810  HIT:    2894423  MISS:      73387
LLC WRITEBACK ACCESS:     109306  HIT:     108548  MISS:        758
LLC PREFETCH  REQUESTED:          0  ISSUED:          0  USEFUL:       3066  USELESS:      68754
LLC AVERAGE MISS LATENCY: 166.226 cycles
LLC

SHEET
LLC-total_access : 3284289
LLC-total_hit : 3186395
LLC-total_miss : 97894
LLC-load_access : 154030
LLC-load_hit : 134557
LLC-load_miss : 19473
LLC-rfo_access : 53143
LLC-rfo_hit : 48867
LLC-rfo_miss : 4276
LLC-prefetch_access : 2967810
LLC-prefetch_hit : 2894423
LLC-prefetch_miss : 73387
LLC-writeback_access : 109306
LLC-writeback_hit : 108548
LLC-writeback_miss : 758
LLC-prefetch_requested : 0
LLC-prefetch_issued : 0
LLC-prefetch_useful : 3066
LLC-prefetch_useless : 68754
LLC-Avg_miss_latency : 166.226

Major fault: 0 Minor fault: 6107



Printing Logs
statHeadFound: 606830
statHeadMissing: 709029
statStreamBufferHit: 13089022
statPrefetchEntryFound: 5731510
statCompactorMatch: 11639883
statStreamTrackerLookup: 14404881
statRecord: 2764998
statGetPointer: 1315859
statEnqueuePrefetch: 17087809
statPrefetchQueueIsFull: 1595
StreamBufferHitRate: 0.908652
Regions' size: 2026
next_region_correct: 1964602
next_region_wrong: 798352
next_region_correct_prediction: 0.711051
statStreamBufferLookups: 1037151432
statL1iLookups: 136702472
statCompactorLookups: 518575716
morteza: start

SHEET
mana_table_access_counter : 5041605
mana_table_multiple_access_counter : 4065914
hobp_table_access_counter : 27324269
sab_access_counter : 18820532
srq_access_counter : 15854079

morteza: end
CPU 0 L1D next line prefetcher final stats

DRAM Statistics
 CHANNEL 0
 RQ ROW_BUFFER_HIT:      29480  ROW_BUFFER_MISS:      67646
 DBUS_CONGESTED:      41983
 WQ ROW_BUFFER_HIT:        939  ROW_BUFFER_MISS:       5374  FULL:          0

 AVG_CONGESTED_CYCLE: 5

CPU 0 Branch Prediction Accuracy: 99.6894% MPKI: 0.58048 Average ROB Occupancy at Mispredict: 138.146

Branch types
NOT_BRANCH: 40655642 81.3113%
BRANCH_DIRECT_JUMP: 546484 1.09297%
BRANCH_INDIRECT: 172433 0.344866%
BRANCH_CONDITIONAL: 6207582 12.4152%
BRANCH_DIRECT_CALL: 1018498 2.037%
BRANCH_INDIRECT_CALL: 190374 0.380748%
BRANCH_RETURN: 1208857 2.41771%
BRANCH_OTHER: 0 0%

