Initialize SIGNATURE TABLE
ST_SET: 1
ST_WAY: 256
ST_TAG_BIT: 16
ST_TAG_MASK: ffff

Initialize PATTERN TABLE
PT_SET: 512
PT_WAY: 4
SIG_DELTA_BIT: 7
C_SIG_BIT: 4
C_DELTA_BIT: 4

Initialize PREFETCH FILTER
FILTER_SET: 1024
MANA initialize 
tds: 2 tdm: 4
size MANA SINGLE: 74 KB
size MANA NULTIPLE: 43 KB
size HOBPT: 5 KB
size SRQ: 0.14502 KB
size SABs: 0.290039 KB
size prefetch queue: 0.453125 KB
total: 122.888 KB

*** ChampSim Multicore Out-of-Order Simulator ***

Warmup Instructions: 50000000
Simulation Instructions: 50000000
Number of CPUs: 1
LLC sets: 2048
LLC ways: 16
Off-chip DRAM Size: 4096 MB Channels: 1 Width: 64-bit Data Rate: 3200 MT/s

CPU 0 runs /home/mbaradaran/ChampSim/dpc3_traces/server_015.champsimtrace.xz
CPU 0 L1D next line prefetcher
Heartbeat CPU 0 instructions: 10000002 cycles: 3519405 heartbeat IPC: 2.84139 cumulative IPC: 2.84139 (Simulation time: 0 hr 1 min 53 sec) 
Heartbeat CPU 0 instructions: 20000001 cycles: 7107304 heartbeat IPC: 2.78715 cumulative IPC: 2.81401 (Simulation time: 0 hr 3 min 50 sec) 
Heartbeat CPU 0 instructions: 30000001 cycles: 10646288 heartbeat IPC: 2.82567 cumulative IPC: 2.81788 (Simulation time: 0 hr 5 min 45 sec) 
Heartbeat CPU 0 instructions: 40000002 cycles: 14194330 heartbeat IPC: 2.81846 cumulative IPC: 2.81803 (Simulation time: 0 hr 7 min 35 sec) 
Heartbeat CPU 0 instructions: 50000002 cycles: 17742590 heartbeat IPC: 2.81828 cumulative IPC: 2.81808 (Simulation time: 0 hr 9 min 26 sec) 

Warmup complete CPU 0 instructions: 50000002 cycles: 17742590 (Simulation time: 0 hr 9 min 26 sec) 

Heartbeat CPU 0 instructions: 60000002 cycles: 24039894 heartbeat IPC: 1.58798 cumulative IPC: 1.58798 (Simulation time: 0 hr 11 min 19 sec) 
Heartbeat CPU 0 instructions: 70000003 cycles: 30350476 heartbeat IPC: 1.58464 cumulative IPC: 1.58631 (Simulation time: 0 hr 13 min 13 sec) 
Heartbeat CPU 0 instructions: 80000000 cycles: 36660622 heartbeat IPC: 1.58475 cumulative IPC: 1.58579 (Simulation time: 0 hr 15 min 12 sec) 
Heartbeat CPU 0 instructions: 90000000 cycles: 42974213 heartbeat IPC: 1.58388 cumulative IPC: 1.58531 (Simulation time: 0 hr 17 min 2 sec) 
Heartbeat CPU 0 instructions: 100000002 cycles: 49284775 heartbeat IPC: 1.58465 cumulative IPC: 1.58518 (Simulation time: 0 hr 18 min 56 sec) 
Finished CPU 0 instructions: 50000000 cycles: 31542185 cumulative IPC: 1.58518 (Simulation time: 0 hr 18 min 56 sec) 

ChampSim completed all CPUs

Region of Interest Statistics

CPU 0 cumulative IPC: 1.58518 instructions: 50000000 cycles: 31542185

SHEET
IPC : 1.58518

L1D TOTAL     ACCESS:   21827450  HIT:   21810678  MISS:      16772
L1D LOAD      ACCESS:    6690355  HIT:    6689823  MISS:        532
L1D RFO       ACCESS:    8561890  HIT:    8561794  MISS:         96
L1D PREFETCH  ACCESS:    6575205  HIT:    6559061  MISS:      16144
L1D WRITEBACK ACCESS:          0  HIT:          0  MISS:          0
L1D PREFETCH  REQUESTED:    6690414  ISSUED:    6579567  USEFUL:         86  USELESS:      16055
L1D AVERAGE MISS LATENCY: 16.1779 cycles
L1D

SHEET
L1D-total_access : 21827450
L1D-total_hit : 21810678
L1D-total_miss : 16772
L1D-load_access : 6690355
L1D-load_hit : 6689823
L1D-load_miss : 532
L1D-rfo_access : 8561890
L1D-rfo_hit : 8561794
L1D-rfo_miss : 96
L1D-prefetch_access : 6575205
L1D-prefetch_hit : 6559061
L1D-prefetch_miss : 16144
L1D-writeback_access : 0
L1D-writeback_hit : 0
L1D-writeback_miss : 0
L1D-prefetch_requested : 6690414
L1D-prefetch_issued : 6579567
L1D-prefetch_useful : 86
L1D-prefetch_useless : 16055
L1D-Avg_miss_latency : 16.1779

L1I TOTAL     ACCESS:   18746286  HIT:   16712878  MISS:    2033408
L1I LOAD      ACCESS:    9756236  HIT:    9650322  MISS:     105914
L1I RFO       ACCESS:          0  HIT:          0  MISS:          0
L1I PREFETCH  ACCESS:    8990050  HIT:    7062556  MISS:    1927494
L1I WRITEBACK ACCESS:          0  HIT:          0  MISS:          0
L1I PREFETCH  REQUESTED:    9360324  ISSUED:    9280192  USEFUL:    1781216  USELESS:     146292
L1I AVERAGE MISS LATENCY: 14.0281 cycles
L1I

SHEET
L1I-total_access : 18746286
L1I-total_hit : 16712878
L1I-total_miss : 2033408
L1I-load_access : 9756236
L1I-load_hit : 9650322
L1I-load_miss : 105914
L1I-rfo_access : 0
L1I-rfo_hit : 0
L1I-rfo_miss : 0
L1I-prefetch_access : 8990050
L1I-prefetch_hit : 7062556
L1I-prefetch_miss : 1927494
L1I-writeback_access : 0
L1I-writeback_hit : 0
L1I-writeback_miss : 0
L1I-prefetch_requested : 9360324
L1I-prefetch_issued : 9280192
L1I-prefetch_useful : 1781216
L1I-prefetch_useless : 146292
L1I-Avg_miss_latency : 14.0281

L2C TOTAL     ACCESS:    2672548  HIT:    2672238  MISS:        310
L2C LOAD      ACCESS:      60091  HIT:      60030  MISS:         61
L2C RFO       ACCESS:         94  HIT:         90  MISS:          4
L2C PREFETCH  ACCESS:    2612013  HIT:    2611768  MISS:        245
L2C WRITEBACK ACCESS:        350  HIT:        350  MISS:          0
L2C PREFETCH  REQUESTED:    1497967  ISSUED:    1497925  USEFUL:         96  USELESS:        132
L2C AVERAGE MISS LATENCY: 121.429 cycles
L2C

SHEET
L2C-total_access : 2672548
L2C-total_hit : 2672238
L2C-total_miss : 310
L2C-load_access : 60091
L2C-load_hit : 60030
L2C-load_miss : 61
L2C-rfo_access : 94
L2C-rfo_hit : 90
L2C-rfo_miss : 4
L2C-prefetch_access : 2612013
L2C-prefetch_hit : 2611768
L2C-prefetch_miss : 245
L2C-writeback_access : 350
L2C-writeback_hit : 350
L2C-writeback_miss : 0
L2C-prefetch_requested : 1497967
L2C-prefetch_issued : 1497925
L2C-prefetch_useful : 96
L2C-prefetch_useless : 132
L2C-Avg_miss_latency : 121.429

LLC TOTAL     ACCESS:     264919  HIT:     264329  MISS:        590
LLC LOAD      ACCESS:         61  HIT:         48  MISS:         13
LLC RFO       ACCESS:          4  HIT:          2  MISS:          2
LLC PREFETCH  ACCESS:     264754  HIT:     264179  MISS:        575
LLC WRITEBACK ACCESS:        100  HIT:        100  MISS:          0
LLC PREFETCH  REQUESTED:          0  ISSUED:          0  USEFUL:          9  USELESS:        172
LLC AVERAGE MISS LATENCY: 268.403 cycles
LLC

SHEET
LLC-total_access : 264919
LLC-total_hit : 264329
LLC-total_miss : 590
LLC-load_access : 61
LLC-load_hit : 48
LLC-load_miss : 13
LLC-rfo_access : 4
LLC-rfo_hit : 2
LLC-rfo_miss : 2
LLC-prefetch_access : 264754
LLC-prefetch_hit : 264179
LLC-prefetch_miss : 575
LLC-writeback_access : 100
LLC-writeback_hit : 100
LLC-writeback_miss : 0
LLC-prefetch_requested : 0
LLC-prefetch_issued : 0
LLC-prefetch_useful : 9
LLC-prefetch_useless : 172
LLC-Avg_miss_latency : 268.403

Major fault: 0 Minor fault: 1949



Printing Logs
statHeadFound: 548788
statHeadMissing: 532697
statStreamBufferHit: 13574718
statPrefetchEntryFound: 6117123
statCompactorMatch: 11457271
statStreamTrackerLookup: 14656203
statRecord: 3198932
statGetPointer: 1081485
statEnqueuePrefetch: 18469435
statPrefetchQueueIsFull: 134
StreamBufferHitRate: 0.92621
Regions' size: 2502
next_region_correct: 2336660
next_region_wrong: 859752
next_region_correct_prediction: 0.731026
statStreamBufferLookups: 1055246616
statL1iLookups: 147755480
statCompactorLookups: 527623308
morteza: start

SHEET
mana_table_access_counter : 5185595
mana_table_multiple_access_counter : 4681920
hobp_table_access_counter : 27569067
sab_access_counter : 19691841
srq_access_counter : 17050961

morteza: end
CPU 0 L1D next line prefetcher final stats

DRAM Statistics
 CHANNEL 0
 RQ ROW_BUFFER_HIT:         90  ROW_BUFFER_MISS:        500
 DBUS_CONGESTED:        360
 WQ ROW_BUFFER_HIT:         62  ROW_BUFFER_MISS:        315  FULL:          0

 AVG_CONGESTED_CYCLE: 6

CPU 0 Branch Prediction Accuracy: 99.9085% MPKI: 0.15428 Average ROB Occupancy at Mispredict: 295.885

Branch types
NOT_BRANCH: 41573140 83.1463%
BRANCH_DIRECT_JUMP: 436254 0.872508%
BRANCH_INDIRECT: 0 0%
BRANCH_CONDITIONAL: 5395897 10.7918%
BRANCH_DIRECT_CALL: 1173391 2.34678%
BRANCH_INDIRECT_CALL: 123912 0.247824%
BRANCH_RETURN: 1297311 2.59462%
BRANCH_OTHER: 0 0%

