Initialize SIGNATURE TABLE
ST_SET: 1
ST_WAY: 256
ST_TAG_BIT: 16
ST_TAG_MASK: ffff

Initialize PATTERN TABLE
PT_SET: 512
PT_WAY: 4
SIG_DELTA_BIT: 7
C_SIG_BIT: 4
C_DELTA_BIT: 4

Initialize PREFETCH FILTER
FILTER_SET: 1024
MANA initialize 
tds: 2 tdm: 4
size MANA SINGLE: 74 KB
size MANA NULTIPLE: 43 KB
size HOBPT: 5 KB
size SRQ: 0.14502 KB
size SABs: 0.290039 KB
size prefetch queue: 0.453125 KB
total: 122.888 KB

*** ChampSim Multicore Out-of-Order Simulator ***

Warmup Instructions: 50000000
Simulation Instructions: 50000000
Number of CPUs: 1
LLC sets: 2048
LLC ways: 16
Off-chip DRAM Size: 4096 MB Channels: 1 Width: 64-bit Data Rate: 3200 MT/s

CPU 0 runs /home/mbaradaran/ChampSim/dpc3_traces/server_022.champsimtrace.xz
CPU 0 L1D next line prefetcher
Heartbeat CPU 0 instructions: 10000002 cycles: 3625296 heartbeat IPC: 2.7584 cumulative IPC: 2.7584 (Simulation time: 0 hr 1 min 58 sec) 
Heartbeat CPU 0 instructions: 20000001 cycles: 7256822 heartbeat IPC: 2.75366 cumulative IPC: 2.75603 (Simulation time: 0 hr 3 min 59 sec) 
Heartbeat CPU 0 instructions: 30000003 cycles: 10881872 heartbeat IPC: 2.75858 cumulative IPC: 2.75688 (Simulation time: 0 hr 5 min 55 sec) 
Heartbeat CPU 0 instructions: 40000003 cycles: 14514565 heartbeat IPC: 2.75278 cumulative IPC: 2.75585 (Simulation time: 0 hr 7 min 52 sec) 
Heartbeat CPU 0 instructions: 50000002 cycles: 18137280 heartbeat IPC: 2.76036 cumulative IPC: 2.75675 (Simulation time: 0 hr 9 min 53 sec) 

Warmup complete CPU 0 instructions: 50000002 cycles: 18137280 (Simulation time: 0 hr 9 min 53 sec) 

Heartbeat CPU 0 instructions: 60000000 cycles: 35284773 heartbeat IPC: 0.583176 cumulative IPC: 0.583176 (Simulation time: 0 hr 12 min 40 sec) 
Heartbeat CPU 0 instructions: 70000001 cycles: 52563704 heartbeat IPC: 0.57874 cumulative IPC: 0.580949 (Simulation time: 0 hr 15 min 29 sec) 
Heartbeat CPU 0 instructions: 80000001 cycles: 69618380 heartbeat IPC: 0.586349 cumulative IPC: 0.582738 (Simulation time: 0 hr 18 min 16 sec) 
Heartbeat CPU 0 instructions: 90000003 cycles: 86945871 heartbeat IPC: 0.577118 cumulative IPC: 0.581323 (Simulation time: 0 hr 21 min 9 sec) 
Heartbeat CPU 0 instructions: 100000003 cycles: 103878867 heartbeat IPC: 0.590563 cumulative IPC: 0.583148 (Simulation time: 0 hr 23 min 26 sec) 
Finished CPU 0 instructions: 50000001 cycles: 85741587 cumulative IPC: 0.583148 (Simulation time: 0 hr 23 min 26 sec) 

ChampSim completed all CPUs

Region of Interest Statistics

CPU 0 cumulative IPC: 0.583148 instructions: 50000001 cycles: 85741587

SHEET
IPC : 0.583148

L1D TOTAL     ACCESS:   18727059  HIT:   16516296  MISS:    2210763
L1D LOAD      ACCESS:    7060392  HIT:    6349981  MISS:     710411
L1D RFO       ACCESS:    5905991  HIT:    4926561  MISS:     979430
L1D PREFETCH  ACCESS:    5760676  HIT:    5239754  MISS:     520922
L1D WRITEBACK ACCESS:          0  HIT:          0  MISS:          0
L1D PREFETCH  REQUESTED:    7102373  ISSUED:    6894671  USEFUL:     199664  USELESS:     321263
L1D AVERAGE MISS LATENCY: 179.453 cycles
L1D

SHEET
L1D-total_access : 18727059
L1D-total_hit : 16516296
L1D-total_miss : 2210763
L1D-load_access : 7060392
L1D-load_hit : 6349981
L1D-load_miss : 710411
L1D-rfo_access : 5905991
L1D-rfo_hit : 4926561
L1D-rfo_miss : 979430
L1D-prefetch_access : 5760676
L1D-prefetch_hit : 5239754
L1D-prefetch_miss : 520922
L1D-writeback_access : 0
L1D-writeback_hit : 0
L1D-writeback_miss : 0
L1D-prefetch_requested : 7102373
L1D-prefetch_issued : 6894671
L1D-prefetch_useful : 199664
L1D-prefetch_useless : 321263
L1D-Avg_miss_latency : 179.453

L1I TOTAL     ACCESS:   15999591  HIT:   13493333  MISS:    2506258
L1I LOAD      ACCESS:   10090843  HIT:    9968281  MISS:     122562
L1I RFO       ACCESS:          0  HIT:          0  MISS:          0
L1I PREFETCH  ACCESS:    5908748  HIT:    3525052  MISS:    2383696
L1I WRITEBACK ACCESS:          0  HIT:          0  MISS:          0
L1I PREFETCH  REQUESTED:    6099189  ISSUED:    6086320  USEFUL:    2308138  USELESS:      75561
L1I AVERAGE MISS LATENCY: 17.6009 cycles
L1I

SHEET
L1I-total_access : 15999591
L1I-total_hit : 13493333
L1I-total_miss : 2506258
L1I-load_access : 10090843
L1I-load_hit : 9968281
L1I-load_miss : 122562
L1I-rfo_access : 0
L1I-rfo_hit : 0
L1I-rfo_miss : 0
L1I-prefetch_access : 5908748
L1I-prefetch_hit : 3525052
L1I-prefetch_miss : 2383696
L1I-writeback_access : 0
L1I-writeback_hit : 0
L1I-writeback_miss : 0
L1I-prefetch_requested : 6099189
L1I-prefetch_issued : 6086320
L1I-prefetch_useful : 2308138
L1I-prefetch_useless : 75561
L1I-Avg_miss_latency : 17.6009

L2C TOTAL     ACCESS:    6812366  HIT:    4942937  MISS:    1869429
L2C LOAD      ACCESS:     548177  HIT:     296552  MISS:     251625
L2C RFO       ACCESS:     978987  HIT:      21823  MISS:     957164
L2C PREFETCH  ACCESS:    4100075  HIT:    3441692  MISS:     658383
L2C WRITEBACK ACCESS:    1185127  HIT:    1182870  MISS:       2257
L2C PREFETCH  REQUESTED:    3971088  ISSUED:    3966909  USEFUL:      25714  USELESS:     632614
L2C AVERAGE MISS LATENCY: 218.634 cycles
L2C

SHEET
L2C-total_access : 6812366
L2C-total_hit : 4942937
L2C-total_miss : 1869429
L2C-load_access : 548177
L2C-load_hit : 296552
L2C-load_miss : 251625
L2C-rfo_access : 978987
L2C-rfo_hit : 21823
L2C-rfo_miss : 957164
L2C-prefetch_access : 4100075
L2C-prefetch_hit : 3441692
L2C-prefetch_miss : 658383
L2C-writeback_access : 1185127
L2C-writeback_hit : 1182870
L2C-writeback_miss : 2257
L2C-prefetch_requested : 3971088
L2C-prefetch_issued : 3966909
L2C-prefetch_useful : 25714
L2C-prefetch_useless : 632614
L2C-Avg_miss_latency : 218.634

LLC TOTAL     ACCESS:    4039884  HIT:    2643526  MISS:    1396358
LLC LOAD      ACCESS:     251536  HIT:     173788  MISS:      77748
LLC RFO       ACCESS:     957164  HIT:     140499  MISS:     816665
LLC PREFETCH  ACCESS:    1714868  HIT:    1215089  MISS:     499779
LLC WRITEBACK ACCESS:    1116316  HIT:    1114150  MISS:       2166
LLC PREFETCH  REQUESTED:          0  ISSUED:          0  USEFUL:      28637  USELESS:     471525
LLC AVERAGE MISS LATENCY: 288.587 cycles
LLC

SHEET
LLC-total_access : 4039884
LLC-total_hit : 2643526
LLC-total_miss : 1396358
LLC-load_access : 251536
LLC-load_hit : 173788
LLC-load_miss : 77748
LLC-rfo_access : 957164
LLC-rfo_hit : 140499
LLC-rfo_miss : 816665
LLC-prefetch_access : 1714868
LLC-prefetch_hit : 1215089
LLC-prefetch_miss : 499779
LLC-writeback_access : 1116316
LLC-writeback_hit : 1114150
LLC-writeback_miss : 2166
LLC-prefetch_requested : 0
LLC-prefetch_issued : 0
LLC-prefetch_useful : 28637
LLC-prefetch_useless : 471525
LLC-Avg_miss_latency : 288.587

Major fault: 0 Minor fault: 23559



Printing Logs
statHeadFound: 271661
statHeadMissing: 1312267
statStreamBufferHit: 12018633
statPrefetchEntryFound: 3914280
statCompactorMatch: 11207583
statStreamTrackerLookup: 13602561
statRecord: 2394978
statGetPointer: 1583928
statEnqueuePrefetch: 12155486
statPrefetchQueueIsFull: 7
StreamBufferHitRate: 0.883557
Regions' size: 1279
next_region_correct: 2031963
next_region_wrong: 361718
next_region_correct_prediction: 0.848886
statStreamBufferLookups: 979384392
statL1iLookups: 97243888
statCompactorLookups: 489692196
morteza: start

SHEET
mana_table_access_counter : 4330331
mana_table_multiple_access_counter : 2251918
hobp_table_access_counter : 26167801
sab_access_counter : 15932913
srq_access_counter : 15019748

morteza: end
CPU 0 L1D next line prefetcher final stats

DRAM Statistics
 CHANNEL 0
 RQ ROW_BUFFER_HIT:     400283  ROW_BUFFER_MISS:     993640
 DBUS_CONGESTED:    1434572
 WQ ROW_BUFFER_HIT:     275149  ROW_BUFFER_MISS:     628308  FULL:          0

 AVG_CONGESTED_CYCLE: 6

CPU 0 Branch Prediction Accuracy: 99.8317% MPKI: 0.27564 Average ROB Occupancy at Mispredict: 218.168

Branch types
NOT_BRANCH: 41811143 83.6223%
BRANCH_DIRECT_JUMP: 445742 0.891484%
BRANCH_INDIRECT: 48876 0.097752%
BRANCH_CONDITIONAL: 5859406 11.7188%
BRANCH_DIRECT_CALL: 758267 1.51653%
BRANCH_INDIRECT_CALL: 159103 0.318206%
BRANCH_RETURN: 917372 1.83474%
BRANCH_OTHER: 0 0%

