Initialize SIGNATURE TABLE
ST_SET: 1
ST_WAY: 256
ST_TAG_BIT: 16
ST_TAG_MASK: ffff

Initialize PATTERN TABLE
PT_SET: 512
PT_WAY: 4
SIG_DELTA_BIT: 7
C_SIG_BIT: 4
C_DELTA_BIT: 4

Initialize PREFETCH FILTER
FILTER_SET: 1024

*** ChampSim Multicore Out-of-Order Simulator ***

Warmup Instructions: 50000000
Simulation Instructions: 50000000
Number of CPUs: 1
LLC sets: 2048
LLC ways: 16
Off-chip DRAM Size: 4096 MB Channels: 1 Width: 64-bit Data Rate: 3200 MT/s

CPU 0 runs /home/mbaradaran/ChampSim/dpc3_traces/client_003.champsimtrace.xz
CPU 0 L1D next line prefetcher
Heartbeat CPU 0 instructions: 10000000 cycles: 3478409 heartbeat IPC: 2.87488 cumulative IPC: 2.87488 (Simulation time: 0 hr 1 min 20 sec) 
Heartbeat CPU 0 instructions: 20000002 cycles: 6933105 heartbeat IPC: 2.89461 cumulative IPC: 2.88471 (Simulation time: 0 hr 2 min 55 sec) 
Heartbeat CPU 0 instructions: 30000003 cycles: 10494342 heartbeat IPC: 2.80801 cumulative IPC: 2.85868 (Simulation time: 0 hr 4 min 36 sec) 
Heartbeat CPU 0 instructions: 40000001 cycles: 14110936 heartbeat IPC: 2.76503 cumulative IPC: 2.83468 (Simulation time: 0 hr 6 min 10 sec) 
Heartbeat CPU 0 instructions: 50000003 cycles: 17656199 heartbeat IPC: 2.82067 cumulative IPC: 2.83187 (Simulation time: 0 hr 7 min 45 sec) 

Warmup complete CPU 0 instructions: 50000003 cycles: 17656199 (Simulation time: 0 hr 7 min 45 sec) 

Heartbeat CPU 0 instructions: 60000002 cycles: 24523729 heartbeat IPC: 1.45613 cumulative IPC: 1.45613 (Simulation time: 0 hr 9 min 2 sec) 
Heartbeat CPU 0 instructions: 70000001 cycles: 31096765 heartbeat IPC: 1.52137 cumulative IPC: 1.48803 (Simulation time: 0 hr 10 min 27 sec) 
Heartbeat CPU 0 instructions: 80000000 cycles: 39031026 heartbeat IPC: 1.26036 cumulative IPC: 1.40352 (Simulation time: 0 hr 11 min 45 sec) 
Heartbeat CPU 0 instructions: 90000000 cycles: 48527354 heartbeat IPC: 1.05304 cumulative IPC: 1.29571 (Simulation time: 0 hr 12 min 57 sec) 
Heartbeat CPU 0 instructions: 100000003 cycles: 59467909 heartbeat IPC: 0.914031 cumulative IPC: 1.19584 (Simulation time: 0 hr 14 min 26 sec) 
Finished CPU 0 instructions: 50000000 cycles: 41811710 cumulative IPC: 1.19584 (Simulation time: 0 hr 14 min 26 sec) 

ChampSim completed all CPUs

Region of Interest Statistics

CPU 0 cumulative IPC: 1.19584 instructions: 50000000 cycles: 41811710

SHEET
IPC : 1.19584

L1D TOTAL     ACCESS:   17964446  HIT:   17468250  MISS:     496196
L1D LOAD      ACCESS:    6192022  HIT:    6066391  MISS:     125631
L1D RFO       ACCESS:    5971445  HIT:    5737353  MISS:     234092
L1D PREFETCH  ACCESS:    5800979  HIT:    5664506  MISS:     136473
L1D WRITEBACK ACCESS:          0  HIT:          0  MISS:          0
L1D PREFETCH  REQUESTED:    6233435  ISSUED:    6090665  USEFUL:      68331  USELESS:      68189
L1D AVERAGE MISS LATENCY: 122.314 cycles
L1D

SHEET
L1D-total_access : 17964446
L1D-total_hit : 17468250
L1D-total_miss : 496196
L1D-load_access : 6192022
L1D-load_hit : 6066391
L1D-load_miss : 125631
L1D-rfo_access : 5971445
L1D-rfo_hit : 5737353
L1D-rfo_miss : 234092
L1D-prefetch_access : 5800979
L1D-prefetch_hit : 5664506
L1D-prefetch_miss : 136473
L1D-writeback_access : 0
L1D-writeback_hit : 0
L1D-writeback_miss : 0
L1D-prefetch_requested : 6233435
L1D-prefetch_issued : 6090665
L1D-prefetch_useful : 68331
L1D-prefetch_useless : 68189
L1D-Avg_miss_latency : 122.314

L1I TOTAL     ACCESS:    9448753  HIT:    9042112  MISS:     406641
L1I LOAD      ACCESS:    9448753  HIT:    9042112  MISS:     406641
L1I RFO       ACCESS:          0  HIT:          0  MISS:          0
L1I PREFETCH  ACCESS:          0  HIT:          0  MISS:          0
L1I WRITEBACK ACCESS:          0  HIT:          0  MISS:          0
L1I PREFETCH  REQUESTED:          0  ISSUED:          0  USEFUL:          0  USELESS:          0
L1I AVERAGE MISS LATENCY: 22.0059 cycles
L1I

SHEET
L1I-total_access : 9448753
L1I-total_hit : 9042112
L1I-total_miss : 406641
L1I-load_access : 9448753
L1I-load_hit : 9042112
L1I-load_miss : 406641
L1I-rfo_access : 0
L1I-rfo_hit : 0
L1I-rfo_miss : 0
L1I-prefetch_access : 0
L1I-prefetch_hit : 0
L1I-prefetch_miss : 0
L1I-writeback_access : 0
L1I-writeback_hit : 0
L1I-writeback_miss : 0
L1I-prefetch_requested : 0
L1I-prefetch_issued : 0
L1I-prefetch_useful : 0
L1I-prefetch_useless : 0
L1I-Avg_miss_latency : 22.0059

L2C TOTAL     ACCESS:    1546260  HIT:    1163565  MISS:     382695
L2C LOAD      ACCESS:     499510  HIT:     421120  MISS:      78390
L2C RFO       ACCESS:     232071  HIT:      27136  MISS:     204935
L2C PREFETCH  ACCESS:     545378  HIT:     446878  MISS:      98500
L2C WRITEBACK ACCESS:     269301  HIT:     268431  MISS:        870
L2C PREFETCH  REQUESTED:     852471  ISSUED:     852467  USEFUL:       5652  USELESS:      91903
L2C AVERAGE MISS LATENCY: 167.186 cycles
L2C

SHEET
L2C-total_access : 1546260
L2C-total_hit : 1163565
L2C-total_miss : 382695
L2C-load_access : 499510
L2C-load_hit : 421120
L2C-load_miss : 78390
L2C-rfo_access : 232071
L2C-rfo_hit : 27136
L2C-rfo_miss : 204935
L2C-prefetch_access : 545378
L2C-prefetch_hit : 446878
L2C-prefetch_miss : 98500
L2C-writeback_access : 269301
L2C-writeback_hit : 268431
L2C-writeback_miss : 870
L2C-prefetch_requested : 852471
L2C-prefetch_issued : 852467
L2C-prefetch_useful : 5652
L2C-prefetch_useless : 91903
L2C-Avg_miss_latency : 167.186

LLC TOTAL     ACCESS:     918094  HIT:     637157  MISS:     280937
LLC LOAD      ACCESS:      78254  HIT:      59380  MISS:      18874
LLC RFO       ACCESS:     204929  HIT:      34000  MISS:     170929
LLC PREFETCH  ACCESS:     412814  HIT:     322072  MISS:      90742
LLC WRITEBACK ACCESS:     222097  HIT:     221705  MISS:        392
LLC PREFETCH  REQUESTED:          0  ISSUED:          0  USEFUL:      13616  USELESS:      75335
LLC AVERAGE MISS LATENCY: 226.554 cycles
LLC

SHEET
LLC-total_access : 918094
LLC-total_hit : 637157
LLC-total_miss : 280937
LLC-load_access : 78254
LLC-load_hit : 59380
LLC-load_miss : 18874
LLC-rfo_access : 204929
LLC-rfo_hit : 34000
LLC-rfo_miss : 170929
LLC-prefetch_access : 412814
LLC-prefetch_hit : 322072
LLC-prefetch_miss : 90742
LLC-writeback_access : 222097
LLC-writeback_hit : 221705
LLC-writeback_miss : 392
LLC-prefetch_requested : 0
LLC-prefetch_issued : 0
LLC-prefetch_useful : 13616
LLC-prefetch_useless : 75335
LLC-Avg_miss_latency : 226.554

Major fault: 0 Minor fault: 5042
CPU 0 L1D next line prefetcher final stats

DRAM Statistics
 CHANNEL 0
 RQ ROW_BUFFER_HIT:      97830  ROW_BUFFER_MISS:     182707
 DBUS_CONGESTED:     252906
 WQ ROW_BUFFER_HIT:      61218  ROW_BUFFER_MISS:     116892  FULL:          0

 AVG_CONGESTED_CYCLE: 6

CPU 0 Branch Prediction Accuracy: 98.6631% MPKI: 2.66884 Average ROB Occupancy at Mispredict: 64.0675

Branch types
NOT_BRANCH: 40018780 80.0376%
BRANCH_DIRECT_JUMP: 370861 0.741722%
BRANCH_INDIRECT: 83253 0.166506%
BRANCH_CONDITIONAL: 7877436 15.7549%
BRANCH_DIRECT_CALL: 722316 1.44463%
BRANCH_INDIRECT_CALL: 101901 0.203802%
BRANCH_RETURN: 825355 1.65071%
BRANCH_OTHER: 0 0%

