Initialize SIGNATURE TABLE
ST_SET: 1
ST_WAY: 256
ST_TAG_BIT: 16
ST_TAG_MASK: ffff

Initialize PATTERN TABLE
PT_SET: 512
PT_WAY: 4
SIG_DELTA_BIT: 7
C_SIG_BIT: 4
C_DELTA_BIT: 4

Initialize PREFETCH FILTER
FILTER_SET: 1024

*** ChampSim Multicore Out-of-Order Simulator ***

Warmup Instructions: 50000000
Simulation Instructions: 50000000
Number of CPUs: 1
LLC sets: 2048
LLC ways: 16
Off-chip DRAM Size: 4096 MB Channels: 1 Width: 64-bit Data Rate: 3200 MT/s

CPU 0 runs /home/mbaradaran/ChampSim/dpc3_traces/client_006.champsimtrace.xz
CPU 0 L1D next line prefetcher
Heartbeat CPU 0 instructions: 10000003 cycles: 4267707 heartbeat IPC: 2.34318 cumulative IPC: 2.34318 (Simulation time: 0 hr 1 min 32 sec) 
Heartbeat CPU 0 instructions: 20000000 cycles: 8308340 heartbeat IPC: 2.47486 cumulative IPC: 2.40722 (Simulation time: 0 hr 3 min 10 sec) 
Heartbeat CPU 0 instructions: 30000003 cycles: 11374173 heartbeat IPC: 3.26176 cumulative IPC: 2.63755 (Simulation time: 0 hr 4 min 28 sec) 
Heartbeat CPU 0 instructions: 40000000 cycles: 14721015 heartbeat IPC: 2.98789 cumulative IPC: 2.7172 (Simulation time: 0 hr 5 min 58 sec) 
Heartbeat CPU 0 instructions: 50000003 cycles: 18826288 heartbeat IPC: 2.43589 cumulative IPC: 2.65586 (Simulation time: 0 hr 7 min 38 sec) 

Warmup complete CPU 0 instructions: 50000003 cycles: 18826288 (Simulation time: 0 hr 7 min 38 sec) 

Heartbeat CPU 0 instructions: 60000001 cycles: 28061243 heartbeat IPC: 1.08284 cumulative IPC: 1.08284 (Simulation time: 0 hr 8 min 50 sec) 
Heartbeat CPU 0 instructions: 70000003 cycles: 37980157 heartbeat IPC: 1.00818 cumulative IPC: 1.04418 (Simulation time: 0 hr 10 min 20 sec) 
Heartbeat CPU 0 instructions: 80000002 cycles: 47922581 heartbeat IPC: 1.00579 cumulative IPC: 1.03106 (Simulation time: 0 hr 11 min 29 sec) 
Heartbeat CPU 0 instructions: 90000003 cycles: 55814035 heartbeat IPC: 1.26719 cumulative IPC: 1.08144 (Simulation time: 0 hr 12 min 40 sec) 
Heartbeat CPU 0 instructions: 100000001 cycles: 65651651 heartbeat IPC: 1.01651 cumulative IPC: 1.0678 (Simulation time: 0 hr 13 min 51 sec) 
Finished CPU 0 instructions: 50000002 cycles: 46825364 cumulative IPC: 1.0678 (Simulation time: 0 hr 13 min 51 sec) 

ChampSim completed all CPUs

Region of Interest Statistics

CPU 0 cumulative IPC: 1.0678 instructions: 50000002 cycles: 46825364

SHEET
IPC : 1.0678

L1D TOTAL     ACCESS:   17095562  HIT:   16368662  MISS:     726900
L1D LOAD      ACCESS:    6601810  HIT:    6200136  MISS:     401674
L1D RFO       ACCESS:    4353239  HIT:    4310709  MISS:      42530
L1D PREFETCH  ACCESS:    6140513  HIT:    5857817  MISS:     282696
L1D WRITEBACK ACCESS:          0  HIT:          0  MISS:          0
L1D PREFETCH  REQUESTED:    6642266  ISSUED:    6462751  USEFUL:     121375  USELESS:     161194
L1D AVERAGE MISS LATENCY: 79.4792 cycles
L1D

SHEET
L1D-total_access : 17095562
L1D-total_hit : 16368662
L1D-total_miss : 726900
L1D-load_access : 6601810
L1D-load_hit : 6200136
L1D-load_miss : 401674
L1D-rfo_access : 4353239
L1D-rfo_hit : 4310709
L1D-rfo_miss : 42530
L1D-prefetch_access : 6140513
L1D-prefetch_hit : 5857817
L1D-prefetch_miss : 282696
L1D-writeback_access : 0
L1D-writeback_hit : 0
L1D-writeback_miss : 0
L1D-prefetch_requested : 6642266
L1D-prefetch_issued : 6462751
L1D-prefetch_useful : 121375
L1D-prefetch_useless : 161194
L1D-Avg_miss_latency : 79.4792

L1I TOTAL     ACCESS:    8410664  HIT:    7723827  MISS:     686837
L1I LOAD      ACCESS:    8410664  HIT:    7723827  MISS:     686837
L1I RFO       ACCESS:          0  HIT:          0  MISS:          0
L1I PREFETCH  ACCESS:          0  HIT:          0  MISS:          0
L1I WRITEBACK ACCESS:          0  HIT:          0  MISS:          0
L1I PREFETCH  REQUESTED:          0  ISSUED:          0  USEFUL:          0  USELESS:          0
L1I AVERAGE MISS LATENCY: 20.5492 cycles
L1I

SHEET
L1I-total_access : 8410664
L1I-total_hit : 7723827
L1I-total_miss : 686837
L1I-load_access : 8410664
L1I-load_hit : 7723827
L1I-load_miss : 686837
L1I-rfo_access : 0
L1I-rfo_hit : 0
L1I-rfo_miss : 0
L1I-prefetch_access : 0
L1I-prefetch_hit : 0
L1I-prefetch_miss : 0
L1I-writeback_access : 0
L1I-writeback_hit : 0
L1I-writeback_miss : 0
L1I-prefetch_requested : 0
L1I-prefetch_issued : 0
L1I-prefetch_useful : 0
L1I-prefetch_useless : 0
L1I-Avg_miss_latency : 20.5492

L2C TOTAL     ACCESS:    2511338  HIT:    1968732  MISS:     542606
L2C LOAD      ACCESS:    1023877  HIT:     748908  MISS:     274969
L2C RFO       ACCESS:      42269  HIT:      12450  MISS:      29819
L2C PREFETCH  ACCESS:    1269233  HIT:    1032109  MISS:     237124
L2C WRITEBACK ACCESS:     175959  HIT:     175265  MISS:        694
L2C PREFETCH  REQUESTED:    2496316  ISSUED:    2475161  USEFUL:       9833  USELESS:     226814
L2C AVERAGE MISS LATENCY: 107.358 cycles
L2C

SHEET
L2C-total_access : 2511338
L2C-total_hit : 1968732
L2C-total_miss : 542606
L2C-load_access : 1023877
L2C-load_hit : 748908
L2C-load_miss : 274969
L2C-rfo_access : 42269
L2C-rfo_hit : 12450
L2C-rfo_miss : 29819
L2C-prefetch_access : 1269233
L2C-prefetch_hit : 1032109
L2C-prefetch_miss : 237124
L2C-writeback_access : 175959
L2C-writeback_hit : 175265
L2C-writeback_miss : 694
L2C-prefetch_requested : 2496316
L2C-prefetch_issued : 2475161
L2C-prefetch_useful : 9833
L2C-prefetch_useless : 226814
L2C-Avg_miss_latency : 107.358

LLC TOTAL     ACCESS:    1279301  HIT:     896130  MISS:     383171
LLC LOAD      ACCESS:     264956  HIT:     162307  MISS:     102649
LLC RFO       ACCESS:      29818  HIT:       4993  MISS:      24825
LLC PREFETCH  ACCESS:     850665  HIT:     595564  MISS:     255101
LLC WRITEBACK ACCESS:     133862  HIT:     133266  MISS:        596
LLC PREFETCH  REQUESTED:          0  ISSUED:          0  USEFUL:      49239  USELESS:     209231
LLC AVERAGE MISS LATENCY: 184.742 cycles
LLC

SHEET
LLC-total_access : 1279301
LLC-total_hit : 896130
LLC-total_miss : 383171
LLC-load_access : 264956
LLC-load_hit : 162307
LLC-load_miss : 102649
LLC-rfo_access : 29818
LLC-rfo_hit : 4993
LLC-rfo_miss : 24825
LLC-prefetch_access : 850665
LLC-prefetch_hit : 595564
LLC-prefetch_miss : 255101
LLC-writeback_access : 133862
LLC-writeback_hit : 133266
LLC-writeback_miss : 596
LLC-prefetch_requested : 0
LLC-prefetch_issued : 0
LLC-prefetch_useful : 49239
LLC-prefetch_useless : 209231
LLC-Avg_miss_latency : 184.742

Major fault: 0 Minor fault: 10527
CPU 0 L1D next line prefetcher final stats

DRAM Statistics
 CHANNEL 0
 RQ ROW_BUFFER_HIT:      97068  ROW_BUFFER_MISS:     285499
 DBUS_CONGESTED:     223621
 WQ ROW_BUFFER_HIT:      22812  ROW_BUFFER_MISS:      91882  FULL:          0

 AVG_CONGESTED_CYCLE: 5

CPU 0 Branch Prediction Accuracy: 98.1683% MPKI: 3.13642 Average ROB Occupancy at Mispredict: 77.0214

Branch types
NOT_BRANCH: 41438057 82.8761%
BRANCH_DIRECT_JUMP: 413829 0.827658%
BRANCH_INDIRECT: 47058 0.094116%
BRANCH_CONDITIONAL: 6843835 13.6877%
BRANCH_DIRECT_CALL: 536885 1.07377%
BRANCH_INDIRECT_CALL: 90642 0.181284%
BRANCH_RETURN: 629329 1.25866%
BRANCH_OTHER: 0 0%

