Initialize SIGNATURE TABLE
ST_SET: 1
ST_WAY: 256
ST_TAG_BIT: 16
ST_TAG_MASK: ffff

Initialize PATTERN TABLE
PT_SET: 512
PT_WAY: 4
SIG_DELTA_BIT: 7
C_SIG_BIT: 4
C_DELTA_BIT: 4

Initialize PREFETCH FILTER
FILTER_SET: 1024

*** ChampSim Multicore Out-of-Order Simulator ***

Warmup Instructions: 50000000
Simulation Instructions: 50000000
Number of CPUs: 1
LLC sets: 2048
LLC ways: 16
Off-chip DRAM Size: 4096 MB Channels: 1 Width: 64-bit Data Rate: 3200 MT/s

CPU 0 runs /home/mbaradaran/ChampSim/dpc3_traces/server_039.champsimtrace.xz
CPU 0 L1D next line prefetcher
Heartbeat CPU 0 instructions: 10000003 cycles: 3453210 heartbeat IPC: 2.89586 cumulative IPC: 2.89586 (Simulation time: 0 hr 1 min 30 sec) 
Heartbeat CPU 0 instructions: 20000002 cycles: 6899575 heartbeat IPC: 2.90161 cumulative IPC: 2.89873 (Simulation time: 0 hr 3 min 14 sec) 
Heartbeat CPU 0 instructions: 30000001 cycles: 10347642 heartbeat IPC: 2.90018 cumulative IPC: 2.89921 (Simulation time: 0 hr 4 min 42 sec) 
Heartbeat CPU 0 instructions: 40000002 cycles: 13791085 heartbeat IPC: 2.90407 cumulative IPC: 2.90042 (Simulation time: 0 hr 6 min 15 sec) 
Heartbeat CPU 0 instructions: 50000001 cycles: 17233919 heartbeat IPC: 2.90458 cumulative IPC: 2.90126 (Simulation time: 0 hr 8 min 0 sec) 

Warmup complete CPU 0 instructions: 50000001 cycles: 17233919 (Simulation time: 0 hr 8 min 0 sec) 

Heartbeat CPU 0 instructions: 60000000 cycles: 27905413 heartbeat IPC: 0.937076 cumulative IPC: 0.937076 (Simulation time: 0 hr 8 min 51 sec) 
Heartbeat CPU 0 instructions: 70000000 cycles: 38574880 heartbeat IPC: 0.937254 cumulative IPC: 0.937165 (Simulation time: 0 hr 9 min 39 sec) 
Heartbeat CPU 0 instructions: 80000000 cycles: 49247654 heartbeat IPC: 0.936964 cumulative IPC: 0.937098 (Simulation time: 0 hr 10 min 26 sec) 
Heartbeat CPU 0 instructions: 90000001 cycles: 59920221 heartbeat IPC: 0.936982 cumulative IPC: 0.937069 (Simulation time: 0 hr 11 min 15 sec) 
Heartbeat CPU 0 instructions: 100000002 cycles: 70592830 heartbeat IPC: 0.936978 cumulative IPC: 0.937051 (Simulation time: 0 hr 12 min 0 sec) 
Finished CPU 0 instructions: 50000001 cycles: 53358911 cumulative IPC: 0.937051 (Simulation time: 0 hr 12 min 0 sec) 

ChampSim completed all CPUs

Region of Interest Statistics

CPU 0 cumulative IPC: 0.937051 instructions: 50000001 cycles: 53358911

SHEET
IPC : 0.937051

L1D TOTAL     ACCESS:   23549037  HIT:   23052071  MISS:     496966
L1D LOAD      ACCESS:    8248616  HIT:    8027942  MISS:     220674
L1D RFO       ACCESS:    7197885  HIT:    7127722  MISS:      70163
L1D PREFETCH  ACCESS:    8102536  HIT:    7896407  MISS:     206129
L1D WRITEBACK ACCESS:          0  HIT:          0  MISS:          0
L1D PREFETCH  REQUESTED:    8261717  ISSUED:    8181947  USEFUL:      48397  USELESS:     157736
L1D AVERAGE MISS LATENCY: 14.7547 cycles
L1D

SHEET
L1D-total_access : 23549037
L1D-total_hit : 23052071
L1D-total_miss : 496966
L1D-load_access : 8248616
L1D-load_hit : 8027942
L1D-load_miss : 220674
L1D-rfo_access : 7197885
L1D-rfo_hit : 7127722
L1D-rfo_miss : 70163
L1D-prefetch_access : 8102536
L1D-prefetch_hit : 7896407
L1D-prefetch_miss : 206129
L1D-writeback_access : 0
L1D-writeback_hit : 0
L1D-writeback_miss : 0
L1D-prefetch_requested : 8261717
L1D-prefetch_issued : 8181947
L1D-prefetch_useful : 48397
L1D-prefetch_useless : 157736
L1D-Avg_miss_latency : 14.7547

L1I TOTAL     ACCESS:    9284032  HIT:    5196732  MISS:    4087300
L1I LOAD      ACCESS:    9284032  HIT:    5196732  MISS:    4087300
L1I RFO       ACCESS:          0  HIT:          0  MISS:          0
L1I PREFETCH  ACCESS:          0  HIT:          0  MISS:          0
L1I WRITEBACK ACCESS:          0  HIT:          0  MISS:          0
L1I PREFETCH  REQUESTED:          0  ISSUED:          0  USEFUL:          0  USELESS:          0
L1I AVERAGE MISS LATENCY: 14.0642 cycles
L1I

SHEET
L1I-total_access : 9284032
L1I-total_hit : 5196732
L1I-total_miss : 4087300
L1I-load_access : 9284032
L1I-load_hit : 5196732
L1I-load_miss : 4087300
L1I-rfo_access : 0
L1I-rfo_hit : 0
L1I-rfo_miss : 0
L1I-prefetch_access : 0
L1I-prefetch_hit : 0
L1I-prefetch_miss : 0
L1I-writeback_access : 0
L1I-writeback_hit : 0
L1I-writeback_miss : 0
L1I-prefetch_requested : 0
L1I-prefetch_issued : 0
L1I-prefetch_useful : 0
L1I-prefetch_useless : 0
L1I-Avg_miss_latency : 14.0642

L2C TOTAL     ACCESS:    8036950  HIT:    8036901  MISS:         49
L2C LOAD      ACCESS:    4298894  HIT:    4298891  MISS:          3
L2C RFO       ACCESS:      66933  HIT:      66933  MISS:          0
L2C PREFETCH  ACCESS:    3490914  HIT:    3490868  MISS:         46
L2C WRITEBACK ACCESS:     180209  HIT:     180209  MISS:          0
L2C PREFETCH  REQUESTED:    5013595  ISSUED:    5013595  USEFUL:          1  USELESS:          1
L2C AVERAGE MISS LATENCY: 73.6735 cycles
L2C

SHEET
L2C-total_access : 8036950
L2C-total_hit : 8036901
L2C-total_miss : 49
L2C-load_access : 4298894
L2C-load_hit : 4298891
L2C-load_miss : 3
L2C-rfo_access : 66933
L2C-rfo_hit : 66933
L2C-rfo_miss : 0
L2C-prefetch_access : 3490914
L2C-prefetch_hit : 3490868
L2C-prefetch_miss : 46
L2C-writeback_access : 180209
L2C-writeback_hit : 180209
L2C-writeback_miss : 0
L2C-prefetch_requested : 5013595
L2C-prefetch_issued : 5013595
L2C-prefetch_useful : 1
L2C-prefetch_useless : 1
L2C-Avg_miss_latency : 73.6735

LLC TOTAL     ACCESS:    1150301  HIT:    1150141  MISS:        160
LLC LOAD      ACCESS:          3  HIT:          1  MISS:          2
LLC RFO       ACCESS:          0  HIT:          0  MISS:          0
LLC PREFETCH  ACCESS:    1150298  HIT:    1150140  MISS:        158
LLC WRITEBACK ACCESS:          0  HIT:          0  MISS:          0
LLC PREFETCH  REQUESTED:          0  ISSUED:          0  USEFUL:          1  USELESS:          0
LLC AVERAGE MISS LATENCY: 174.981 cycles
LLC

SHEET
LLC-total_access : 1150301
LLC-total_hit : 1150141
LLC-total_miss : 160
LLC-load_access : 3
LLC-load_hit : 1
LLC-load_miss : 2
LLC-rfo_access : 0
LLC-rfo_hit : 0
LLC-rfo_miss : 0
LLC-prefetch_access : 1150298
LLC-prefetch_hit : 1150140
LLC-prefetch_miss : 158
LLC-writeback_access : 0
LLC-writeback_hit : 0
LLC-writeback_miss : 0
LLC-prefetch_requested : 0
LLC-prefetch_issued : 0
LLC-prefetch_useful : 1
LLC-prefetch_useless : 0
LLC-Avg_miss_latency : 174.981

Major fault: 0 Minor fault: 356
CPU 0 L1D next line prefetcher final stats

DRAM Statistics
 CHANNEL 0
 RQ ROW_BUFFER_HIT:         20  ROW_BUFFER_MISS:        140
 DBUS_CONGESTED:         28
 WQ ROW_BUFFER_HIT:          0  ROW_BUFFER_MISS:          0  FULL:          0

 AVG_CONGESTED_CYCLE: 6

CPU 0 Branch Prediction Accuracy: 99.9091% MPKI: 0.1547 Average ROB Occupancy at Mispredict: 8.85624

Branch types
NOT_BRANCH: 41494795 82.9896%
BRANCH_DIRECT_JUMP: 491305 0.98261%
BRANCH_INDIRECT: 0 0%
BRANCH_CONDITIONAL: 5595231 11.1905%
BRANCH_DIRECT_CALL: 1028406 2.05681%
BRANCH_INDIRECT_CALL: 180755 0.36151%
BRANCH_RETURN: 1209170 2.41834%
BRANCH_OTHER: 0 0%

