Initialize SIGNATURE TABLE
ST_SET: 1
ST_WAY: 256
ST_TAG_BIT: 16
ST_TAG_MASK: ffff

Initialize PATTERN TABLE
PT_SET: 512
PT_WAY: 4
SIG_DELTA_BIT: 7
C_SIG_BIT: 4
C_DELTA_BIT: 4

Initialize PREFETCH FILTER
FILTER_SET: 1024

*** ChampSim Multicore Out-of-Order Simulator ***

Warmup Instructions: 50000000
Simulation Instructions: 50000000
Number of CPUs: 1
LLC sets: 2048
LLC ways: 16
Off-chip DRAM Size: 4096 MB Channels: 1 Width: 64-bit Data Rate: 3200 MT/s

CPU 0 runs /home/mbaradaran/ChampSim/dpc3_traces/server_003.champsimtrace.xz
CPU 0 L1D next line prefetcher
Heartbeat CPU 0 instructions: 10000002 cycles: 3225034 heartbeat IPC: 3.10074 cumulative IPC: 3.10074 (Simulation time: 0 hr 1 min 29 sec) 
Heartbeat CPU 0 instructions: 20000000 cycles: 6544759 heartbeat IPC: 3.0123 cumulative IPC: 3.05588 (Simulation time: 0 hr 2 min 56 sec) 
Heartbeat CPU 0 instructions: 30000000 cycles: 9756350 heartbeat IPC: 3.11372 cumulative IPC: 3.07492 (Simulation time: 0 hr 4 min 31 sec) 
Heartbeat CPU 0 instructions: 40000001 cycles: 13173022 heartbeat IPC: 2.92683 cumulative IPC: 3.03651 (Simulation time: 0 hr 6 min 8 sec) 
Heartbeat CPU 0 instructions: 50000003 cycles: 16891569 heartbeat IPC: 2.68922 cumulative IPC: 2.96006 (Simulation time: 0 hr 7 min 54 sec) 

Warmup complete CPU 0 instructions: 50000003 cycles: 16891569 (Simulation time: 0 hr 7 min 54 sec) 

Heartbeat CPU 0 instructions: 60000000 cycles: 27097336 heartbeat IPC: 0.979838 cumulative IPC: 0.979838 (Simulation time: 0 hr 9 min 17 sec) 
Heartbeat CPU 0 instructions: 70000003 cycles: 37136011 heartbeat IPC: 0.996148 cumulative IPC: 0.987925 (Simulation time: 0 hr 10 min 40 sec) 
Heartbeat CPU 0 instructions: 80000000 cycles: 50208000 heartbeat IPC: 0.764994 cumulative IPC: 0.900456 (Simulation time: 0 hr 12 min 3 sec) 
Heartbeat CPU 0 instructions: 90000003 cycles: 63718403 heartbeat IPC: 0.740171 cumulative IPC: 0.854211 (Simulation time: 0 hr 13 min 28 sec) 
Heartbeat CPU 0 instructions: 100000003 cycles: 77667245 heartbeat IPC: 0.716905 cumulative IPC: 0.822698 (Simulation time: 0 hr 14 min 49 sec) 
Finished CPU 0 instructions: 50000000 cycles: 60775676 cumulative IPC: 0.822698 (Simulation time: 0 hr 14 min 49 sec) 

ChampSim completed all CPUs

Region of Interest Statistics

CPU 0 cumulative IPC: 0.822698 instructions: 50000000 cycles: 60775676

SHEET
IPC : 0.822698

L1D TOTAL     ACCESS:   20569312  HIT:   19427538  MISS:    1141774
L1D LOAD      ACCESS:    8118265  HIT:    7594345  MISS:     523920
L1D RFO       ACCESS:    4583102  HIT:    4465711  MISS:     117391
L1D PREFETCH  ACCESS:    7867945  HIT:    7367482  MISS:     500463
L1D WRITEBACK ACCESS:          0  HIT:          0  MISS:          0
L1D PREFETCH  REQUESTED:    8177963  ISSUED:    8084212  USEFUL:     161948  USELESS:     338474
L1D AVERAGE MISS LATENCY: 52.7419 cycles
L1D

SHEET
L1D-total_access : 20569312
L1D-total_hit : 19427538
L1D-total_miss : 1141774
L1D-load_access : 8118265
L1D-load_hit : 7594345
L1D-load_miss : 523920
L1D-rfo_access : 4583102
L1D-rfo_hit : 4465711
L1D-rfo_miss : 117391
L1D-prefetch_access : 7867945
L1D-prefetch_hit : 7367482
L1D-prefetch_miss : 500463
L1D-writeback_access : 0
L1D-writeback_hit : 0
L1D-writeback_miss : 0
L1D-prefetch_requested : 8177963
L1D-prefetch_issued : 8084212
L1D-prefetch_useful : 161948
L1D-prefetch_useless : 338474
L1D-Avg_miss_latency : 52.7419

L1I TOTAL     ACCESS:    9275854  HIT:    8424926  MISS:     850928
L1I LOAD      ACCESS:    9275854  HIT:    8424926  MISS:     850928
L1I RFO       ACCESS:          0  HIT:          0  MISS:          0
L1I PREFETCH  ACCESS:          0  HIT:          0  MISS:          0
L1I WRITEBACK ACCESS:          0  HIT:          0  MISS:          0
L1I PREFETCH  REQUESTED:          0  ISSUED:          0  USEFUL:          0  USELESS:          0
L1I AVERAGE MISS LATENCY: 37.6439 cycles
L1I

SHEET
L1I-total_access : 9275854
L1I-total_hit : 8424926
L1I-total_miss : 850928
L1I-load_access : 9275854
L1I-load_hit : 8424926
L1I-load_miss : 850928
L1I-rfo_access : 0
L1I-rfo_hit : 0
L1I-rfo_miss : 0
L1I-prefetch_access : 0
L1I-prefetch_hit : 0
L1I-prefetch_miss : 0
L1I-writeback_access : 0
L1I-writeback_hit : 0
L1I-writeback_miss : 0
L1I-prefetch_requested : 0
L1I-prefetch_issued : 0
L1I-prefetch_useful : 0
L1I-prefetch_useless : 0
L1I-Avg_miss_latency : 37.6439

L2C TOTAL     ACCESS:    3049970  HIT:    2138486  MISS:     911484
L2C LOAD      ACCESS:    1352163  HIT:     781196  MISS:     570967
L2C RFO       ACCESS:     114638  HIT:      42462  MISS:      72176
L2C PREFETCH  ACCESS:    1298843  HIT:    1031119  MISS:     267724
L2C WRITEBACK ACCESS:     284326  HIT:     283709  MISS:        617
L2C PREFETCH  REQUESTED:    2422128  ISSUED:    2421942  USEFUL:      41877  USELESS:     226091
L2C AVERAGE MISS LATENCY: 70.9202 cycles
L2C

SHEET
L2C-total_access : 3049970
L2C-total_hit : 2138486
L2C-total_miss : 911484
L2C-load_access : 1352163
L2C-load_hit : 781196
L2C-load_miss : 570967
L2C-rfo_access : 114638
L2C-rfo_hit : 42462
L2C-rfo_miss : 72176
L2C-prefetch_access : 1298843
L2C-prefetch_hit : 1031119
L2C-prefetch_miss : 267724
L2C-writeback_access : 284326
L2C-writeback_hit : 283709
L2C-writeback_miss : 617
L2C-prefetch_requested : 2422128
L2C-prefetch_issued : 2421942
L2C-prefetch_useful : 41877
L2C-prefetch_useless : 226091
L2C-Avg_miss_latency : 70.9202

LLC TOTAL     ACCESS:    2092107  HIT:    1692096  MISS:     400011
LLC LOAD      ACCESS:     554433  HIT:     442818  MISS:     111615
LLC RFO       ACCESS:      72175  HIT:      30720  MISS:      41455
LLC PREFETCH  ACCESS:    1305006  HIT:    1060089  MISS:     244917
LLC WRITEBACK ACCESS:     160493  HIT:     158469  MISS:       2024
LLC PREFETCH  REQUESTED:          0  ISSUED:          0  USEFUL:      64530  USELESS:     173491
LLC AVERAGE MISS LATENCY: 170.358 cycles
LLC

SHEET
LLC-total_access : 2092107
LLC-total_hit : 1692096
LLC-total_miss : 400011
LLC-load_access : 554433
LLC-load_hit : 442818
LLC-load_miss : 111615
LLC-rfo_access : 72175
LLC-rfo_hit : 30720
LLC-rfo_miss : 41455
LLC-prefetch_access : 1305006
LLC-prefetch_hit : 1060089
LLC-prefetch_miss : 244917
LLC-writeback_access : 160493
LLC-writeback_hit : 158469
LLC-writeback_miss : 2024
LLC-prefetch_requested : 0
LLC-prefetch_issued : 0
LLC-prefetch_useful : 64530
LLC-prefetch_useless : 173491
LLC-Avg_miss_latency : 170.358

Major fault: 0 Minor fault: 7768
CPU 0 L1D next line prefetcher final stats

DRAM Statistics
 CHANNEL 0
 RQ ROW_BUFFER_HIT:      89599  ROW_BUFFER_MISS:     308363
 DBUS_CONGESTED:     182924
 WQ ROW_BUFFER_HIT:      25773  ROW_BUFFER_MISS:      79473  FULL:          0

 AVG_CONGESTED_CYCLE: 5

CPU 0 Branch Prediction Accuracy: 95.439% MPKI: 9.02702 Average ROB Occupancy at Mispredict: 53.71

Branch types
NOT_BRANCH: 40103949 80.2079%
BRANCH_DIRECT_JUMP: 497927 0.995854%
BRANCH_INDIRECT: 130586 0.261172%
BRANCH_CONDITIONAL: 7219001 14.438%
BRANCH_DIRECT_CALL: 625806 1.25161%
BRANCH_INDIRECT_CALL: 389785 0.77957%
BRANCH_RETURN: 1032744 2.06549%
BRANCH_OTHER: 0 0%

