Initialize SIGNATURE TABLE
ST_SET: 1
ST_WAY: 256
ST_TAG_BIT: 16
ST_TAG_MASK: ffff

Initialize PATTERN TABLE
PT_SET: 512
PT_WAY: 4
SIG_DELTA_BIT: 7
C_SIG_BIT: 4
C_DELTA_BIT: 4

Initialize PREFETCH FILTER
FILTER_SET: 1024

*** ChampSim Multicore Out-of-Order Simulator ***

Warmup Instructions: 50000000
Simulation Instructions: 50000000
Number of CPUs: 1
LLC sets: 2048
LLC ways: 16
Off-chip DRAM Size: 4096 MB Channels: 1 Width: 64-bit Data Rate: 3200 MT/s

CPU 0 runs /home/mbaradaran/ChampSim/dpc3_traces/server_020.champsimtrace.xz
CPU 0 L1D next line prefetcher
Heartbeat CPU 0 instructions: 10000003 cycles: 3626998 heartbeat IPC: 2.7571 cumulative IPC: 2.7571 (Simulation time: 0 hr 1 min 38 sec) 
Heartbeat CPU 0 instructions: 20000002 cycles: 7258616 heartbeat IPC: 2.75359 cumulative IPC: 2.75535 (Simulation time: 0 hr 3 min 33 sec) 
Heartbeat CPU 0 instructions: 30000001 cycles: 10883366 heartbeat IPC: 2.75881 cumulative IPC: 2.7565 (Simulation time: 0 hr 5 min 14 sec) 
Heartbeat CPU 0 instructions: 40000002 cycles: 14509195 heartbeat IPC: 2.75799 cumulative IPC: 2.75687 (Simulation time: 0 hr 6 min 52 sec) 
Heartbeat CPU 0 instructions: 50000001 cycles: 18148459 heartbeat IPC: 2.74781 cumulative IPC: 2.75505 (Simulation time: 0 hr 8 min 41 sec) 

Warmup complete CPU 0 instructions: 50000001 cycles: 18148459 (Simulation time: 0 hr 8 min 41 sec) 

Heartbeat CPU 0 instructions: 60000003 cycles: 37863129 heartbeat IPC: 0.507237 cumulative IPC: 0.507237 (Simulation time: 0 hr 10 min 54 sec) 
Heartbeat CPU 0 instructions: 70000002 cycles: 57589221 heartbeat IPC: 0.506943 cumulative IPC: 0.50709 (Simulation time: 0 hr 13 min 3 sec) 
Heartbeat CPU 0 instructions: 80000002 cycles: 77144623 heartbeat IPC: 0.511368 cumulative IPC: 0.508508 (Simulation time: 0 hr 15 min 15 sec) 
Heartbeat CPU 0 instructions: 90000001 cycles: 96677676 heartbeat IPC: 0.511953 cumulative IPC: 0.509365 (Simulation time: 0 hr 17 min 25 sec) 
Heartbeat CPU 0 instructions: 100000002 cycles: 116235821 heartbeat IPC: 0.511296 cumulative IPC: 0.50975 (Simulation time: 0 hr 19 min 25 sec) 
Finished CPU 0 instructions: 50000001 cycles: 98087362 cumulative IPC: 0.50975 (Simulation time: 0 hr 19 min 25 sec) 

ChampSim completed all CPUs

Region of Interest Statistics

CPU 0 cumulative IPC: 0.50975 instructions: 50000001 cycles: 98087362

SHEET
IPC : 0.50975

L1D TOTAL     ACCESS:   19916761  HIT:   17712531  MISS:    2204230
L1D LOAD      ACCESS:    7654655  HIT:    6931192  MISS:     723463
L1D RFO       ACCESS:    5856095  HIT:    4910090  MISS:     946005
L1D PREFETCH  ACCESS:    6406011  HIT:    5871249  MISS:     534762
L1D WRITEBACK ACCESS:          0  HIT:          0  MISS:          0
L1D PREFETCH  REQUESTED:    7702375  ISSUED:    7520271  USEFUL:     195456  USELESS:     339224
L1D AVERAGE MISS LATENCY: 171.323 cycles
L1D

SHEET
L1D-total_access : 19916761
L1D-total_hit : 17712531
L1D-total_miss : 2204230
L1D-load_access : 7654655
L1D-load_hit : 6931192
L1D-load_miss : 723463
L1D-rfo_access : 5856095
L1D-rfo_hit : 4910090
L1D-rfo_miss : 946005
L1D-prefetch_access : 6406011
L1D-prefetch_hit : 5871249
L1D-prefetch_miss : 534762
L1D-writeback_access : 0
L1D-writeback_hit : 0
L1D-writeback_miss : 0
L1D-prefetch_requested : 7702375
L1D-prefetch_issued : 7520271
L1D-prefetch_useful : 195456
L1D-prefetch_useless : 339224
L1D-Avg_miss_latency : 171.323

L1I TOTAL     ACCESS:    9955328  HIT:    7554386  MISS:    2400942
L1I LOAD      ACCESS:    9955328  HIT:    7554386  MISS:    2400942
L1I RFO       ACCESS:          0  HIT:          0  MISS:          0
L1I PREFETCH  ACCESS:          0  HIT:          0  MISS:          0
L1I WRITEBACK ACCESS:          0  HIT:          0  MISS:          0
L1I PREFETCH  REQUESTED:          0  ISSUED:          0  USEFUL:          0  USELESS:          0
L1I AVERAGE MISS LATENCY: 17.6109 cycles
L1I

SHEET
L1I-total_access : 9955328
L1I-total_hit : 7554386
L1I-total_miss : 2400942
L1I-load_access : 9955328
L1I-load_hit : 7554386
L1I-load_miss : 2400942
L1I-rfo_access : 0
L1I-rfo_hit : 0
L1I-rfo_miss : 0
L1I-prefetch_access : 0
L1I-prefetch_hit : 0
L1I-prefetch_miss : 0
L1I-writeback_access : 0
L1I-writeback_hit : 0
L1I-writeback_miss : 0
L1I-prefetch_requested : 0
L1I-prefetch_issued : 0
L1I-prefetch_useful : 0
L1I-prefetch_useless : 0
L1I-Avg_miss_latency : 17.6109

L2C TOTAL     ACCESS:    7923922  HIT:    6065528  MISS:    1858394
L2C LOAD      ACCESS:    2895801  HIT:    2505134  MISS:     390667
L2C RFO       ACCESS:     945651  HIT:      20245  MISS:     925406
L2C PREFETCH  ACCESS:    2918863  HIT:    2378857  MISS:     540006
L2C WRITEBACK ACCESS:    1163607  HIT:    1161292  MISS:       2315
L2C PREFETCH  REQUESTED:    3988519  ISSUED:    3985290  USEFUL:      23007  USELESS:     516621
L2C AVERAGE MISS LATENCY: 208.087 cycles
L2C

SHEET
L2C-total_access : 7923922
L2C-total_hit : 6065528
L2C-total_miss : 1858394
L2C-load_access : 2895801
L2C-load_hit : 2505134
L2C-load_miss : 390667
L2C-rfo_access : 945651
L2C-rfo_hit : 20245
L2C-rfo_miss : 925406
L2C-prefetch_access : 2918863
L2C-prefetch_hit : 2378857
L2C-prefetch_miss : 540006
L2C-writeback_access : 1163607
L2C-writeback_hit : 1161292
L2C-writeback_miss : 2315
L2C-prefetch_requested : 3988519
L2C-prefetch_issued : 3985290
L2C-prefetch_useful : 23007
L2C-prefetch_useless : 516621
L2C-Avg_miss_latency : 208.087

LLC TOTAL     ACCESS:    4065339  HIT:    2623508  MISS:    1441831
LLC LOAD      ACCESS:     390212  HIT:     270988  MISS:     119224
LLC RFO       ACCESS:     925402  HIT:     137684  MISS:     787718
LLC PREFETCH  ACCESS:    1652357  HIT:    1119390  MISS:     532967
LLC WRITEBACK ACCESS:    1097368  HIT:    1095446  MISS:       1922
LLC PREFETCH  REQUESTED:          0  ISSUED:          0  USEFUL:      37255  USELESS:     496646
LLC AVERAGE MISS LATENCY: 267.778 cycles
LLC

SHEET
LLC-total_access : 4065339
LLC-total_hit : 2623508
LLC-total_miss : 1441831
LLC-load_access : 390212
LLC-load_hit : 270988
LLC-load_miss : 119224
LLC-rfo_access : 925402
LLC-rfo_hit : 137684
LLC-rfo_miss : 787718
LLC-prefetch_access : 1652358
LLC-prefetch_hit : 1119391
LLC-prefetch_miss : 532967
LLC-writeback_access : 1097368
LLC-writeback_hit : 1095446
LLC-writeback_miss : 1922
LLC-prefetch_requested : 0
LLC-prefetch_issued : 0
LLC-prefetch_useful : 37255
LLC-prefetch_useless : 496646
LLC-Avg_miss_latency : 267.778

Major fault: 0 Minor fault: 22091
CPU 0 L1D next line prefetcher final stats

DRAM Statistics
 CHANNEL 0
 RQ ROW_BUFFER_HIT:     406228  ROW_BUFFER_MISS:    1033467
 DBUS_CONGESTED:    1408115
 WQ ROW_BUFFER_HIT:     260711  ROW_BUFFER_MISS:     627664  FULL:          0

 AVG_CONGESTED_CYCLE: 6

CPU 0 Branch Prediction Accuracy: 99.712% MPKI: 0.47638 Average ROB Occupancy at Mispredict: 181.252

Branch types
NOT_BRANCH: 41729374 83.4587%
BRANCH_DIRECT_JUMP: 458219 0.916438%
BRANCH_INDIRECT: 49088 0.098176%
BRANCH_CONDITIONAL: 5938510 11.877%
BRANCH_DIRECT_CALL: 745128 1.49026%
BRANCH_INDIRECT_CALL: 167106 0.334212%
BRANCH_RETURN: 912219 1.82444%
BRANCH_OTHER: 0 0%

