Initialize SIGNATURE TABLE
ST_SET: 1
ST_WAY: 256
ST_TAG_BIT: 16
ST_TAG_MASK: ffff

Initialize PATTERN TABLE
PT_SET: 512
PT_WAY: 4
SIG_DELTA_BIT: 7
C_SIG_BIT: 4
C_DELTA_BIT: 4

Initialize PREFETCH FILTER
FILTER_SET: 1024

*** ChampSim Multicore Out-of-Order Simulator ***

Warmup Instructions: 50000000
Simulation Instructions: 50000000
Number of CPUs: 1
LLC sets: 2048
LLC ways: 16
Off-chip DRAM Size: 4096 MB Channels: 1 Width: 64-bit Data Rate: 3200 MT/s

CPU 0 runs /home/mbaradaran/ChampSim/dpc3_traces/server_033.champsimtrace.xz
CPU 0 L1D next line prefetcher
Heartbeat CPU 0 instructions: 10000001 cycles: 3349618 heartbeat IPC: 2.98542 cumulative IPC: 2.98542 (Simulation time: 0 hr 1 min 32 sec) 
Heartbeat CPU 0 instructions: 20000003 cycles: 6697733 heartbeat IPC: 2.98676 cumulative IPC: 2.98609 (Simulation time: 0 hr 3 min 7 sec) 
Heartbeat CPU 0 instructions: 30000001 cycles: 10035386 heartbeat IPC: 2.99612 cumulative IPC: 2.98942 (Simulation time: 0 hr 4 min 35 sec) 
Heartbeat CPU 0 instructions: 40000000 cycles: 13382469 heartbeat IPC: 2.98768 cumulative IPC: 2.98899 (Simulation time: 0 hr 6 min 16 sec) 
Heartbeat CPU 0 instructions: 50000000 cycles: 16728562 heartbeat IPC: 2.98856 cumulative IPC: 2.9889 (Simulation time: 0 hr 7 min 44 sec) 

Warmup complete CPU 0 instructions: 50000004 cycles: 16728563 (Simulation time: 0 hr 7 min 44 sec) 

Heartbeat CPU 0 instructions: 60000000 cycles: 26674794 heartbeat IPC: 1.00541 cumulative IPC: 1.00541 (Simulation time: 0 hr 8 min 47 sec) 
Heartbeat CPU 0 instructions: 70000000 cycles: 36554430 heartbeat IPC: 1.01218 cumulative IPC: 1.00878 (Simulation time: 0 hr 9 min 49 sec) 
Heartbeat CPU 0 instructions: 80000000 cycles: 47090216 heartbeat IPC: 0.949146 cumulative IPC: 0.988088 (Simulation time: 0 hr 11 min 1 sec) 
Heartbeat CPU 0 instructions: 90000003 cycles: 57099242 heartbeat IPC: 0.999099 cumulative IPC: 0.990818 (Simulation time: 0 hr 12 min 22 sec) 
Heartbeat CPU 0 instructions: 100000000 cycles: 67073183 heartbeat IPC: 1.00261 cumulative IPC: 0.993155 (Simulation time: 0 hr 13 min 19 sec) 
Finished CPU 0 instructions: 50000000 cycles: 50344627 cumulative IPC: 0.993155 (Simulation time: 0 hr 13 min 19 sec) 

ChampSim completed all CPUs

Region of Interest Statistics

CPU 0 cumulative IPC: 0.993155 instructions: 50000000 cycles: 50344627

SHEET
IPC : 0.993155

L1D TOTAL     ACCESS:   20847816  HIT:   19364064  MISS:    1483752
L1D LOAD      ACCESS:    7402028  HIT:    6728272  MISS:     673756
L1D RFO       ACCESS:    6230217  HIT:    6078362  MISS:     151855
L1D PREFETCH  ACCESS:    7215571  HIT:    6557430  MISS:     658141
L1D WRITEBACK ACCESS:          0  HIT:          0  MISS:          0
L1D PREFETCH  REQUESTED:    7459461  ISSUED:    7360416  USEFUL:     148714  USELESS:     509432
L1D AVERAGE MISS LATENCY: 23.3553 cycles
L1D

SHEET
L1D-total_access : 20847816
L1D-total_hit : 19364064
L1D-total_miss : 1483752
L1D-load_access : 7402028
L1D-load_hit : 6728272
L1D-load_miss : 673756
L1D-rfo_access : 6230217
L1D-rfo_hit : 6078362
L1D-rfo_miss : 151855
L1D-prefetch_access : 7215571
L1D-prefetch_hit : 6557430
L1D-prefetch_miss : 658141
L1D-writeback_access : 0
L1D-writeback_hit : 0
L1D-writeback_miss : 0
L1D-prefetch_requested : 7459461
L1D-prefetch_issued : 7360416
L1D-prefetch_useful : 148714
L1D-prefetch_useless : 509432
L1D-Avg_miss_latency : 23.3553

L1I TOTAL     ACCESS:    9608210  HIT:    6308841  MISS:    3299369
L1I LOAD      ACCESS:    9608210  HIT:    6308841  MISS:    3299369
L1I RFO       ACCESS:          0  HIT:          0  MISS:          0
L1I PREFETCH  ACCESS:          0  HIT:          0  MISS:          0
L1I WRITEBACK ACCESS:          0  HIT:          0  MISS:          0
L1I PREFETCH  REQUESTED:          0  ISSUED:          0  USEFUL:          0  USELESS:          0
L1I AVERAGE MISS LATENCY: 14.6151 cycles
L1I

SHEET
L1I-total_access : 9608210
L1I-total_hit : 6308841
L1I-total_miss : 3299369
L1I-load_access : 9608210
L1I-load_hit : 6308841
L1I-load_miss : 3299369
L1I-rfo_access : 0
L1I-rfo_hit : 0
L1I-rfo_miss : 0
L1I-prefetch_access : 0
L1I-prefetch_hit : 0
L1I-prefetch_miss : 0
L1I-writeback_access : 0
L1I-writeback_hit : 0
L1I-writeback_miss : 0
L1I-prefetch_requested : 0
L1I-prefetch_issued : 0
L1I-prefetch_useful : 0
L1I-prefetch_useless : 0
L1I-Avg_miss_latency : 14.6151

L2C TOTAL     ACCESS:    8440092  HIT:    8150846  MISS:     289246
L2C LOAD      ACCESS:    3966769  HIT:    3811092  MISS:     155677
L2C RFO       ACCESS:     151452  HIT:     131434  MISS:      20018
L2C PREFETCH  ACCESS:    3954955  HIT:    3842455  MISS:     112500
L2C WRITEBACK ACCESS:     366916  HIT:     365865  MISS:       1051
L2C PREFETCH  REQUESTED:    5932228  ISSUED:    5926308  USEFUL:       9607  USELESS:     102950
L2C AVERAGE MISS LATENCY: 48.3424 cycles
L2C

SHEET
L2C-total_access : 8440092
L2C-total_hit : 8150846
L2C-total_miss : 289246
L2C-load_access : 3966769
L2C-load_hit : 3811092
L2C-load_miss : 155677
L2C-rfo_access : 151452
L2C-rfo_hit : 131434
L2C-rfo_miss : 20018
L2C-prefetch_access : 3954955
L2C-prefetch_hit : 3842455
L2C-prefetch_miss : 112500
L2C-writeback_access : 366916
L2C-writeback_hit : 365865
L2C-writeback_miss : 1051
L2C-prefetch_requested : 5932228
L2C-prefetch_issued : 5926308
L2C-prefetch_useful : 9607
L2C-prefetch_useless : 102950
L2C-Avg_miss_latency : 48.3424

LLC TOTAL     ACCESS:    2060466  HIT:    2002581  MISS:      57885
LLC LOAD      ACCESS:     155526  HIT:     140026  MISS:      15500
LLC RFO       ACCESS:      20018  HIT:      17017  MISS:       3001
LLC PREFETCH  ACCESS:    1782004  HIT:    1742873  MISS:      39131
LLC WRITEBACK ACCESS:     102918  HIT:     102665  MISS:        253
LLC PREFETCH  REQUESTED:          0  ISSUED:          0  USEFUL:       7388  USELESS:      31026
LLC AVERAGE MISS LATENCY: 166.594 cycles
LLC

SHEET
LLC-total_access : 2060466
LLC-total_hit : 2002581
LLC-total_miss : 57885
LLC-load_access : 155526
LLC-load_hit : 140026
LLC-load_miss : 15500
LLC-rfo_access : 20018
LLC-rfo_hit : 17017
LLC-rfo_miss : 3001
LLC-prefetch_access : 1782004
LLC-prefetch_hit : 1742873
LLC-prefetch_miss : 39131
LLC-writeback_access : 102918
LLC-writeback_hit : 102665
LLC-writeback_miss : 253
LLC-prefetch_requested : 0
LLC-prefetch_issued : 0
LLC-prefetch_useful : 7388
LLC-prefetch_useless : 31026
LLC-Avg_miss_latency : 166.594

Major fault: 0 Minor fault: 2482
CPU 0 L1D next line prefetcher final stats

DRAM Statistics
 CHANNEL 0
 RQ ROW_BUFFER_HIT:       9208  ROW_BUFFER_MISS:      48423
 DBUS_CONGESTED:      24672
 WQ ROW_BUFFER_HIT:       3498  ROW_BUFFER_MISS:      16398  FULL:          0

 AVG_CONGESTED_CYCLE: 5

CPU 0 Branch Prediction Accuracy: 99.9029% MPKI: 0.19006 Average ROB Occupancy at Mispredict: 113.807

Branch types
NOT_BRANCH: 40217077 80.4342%
BRANCH_DIRECT_JUMP: 774599 1.5492%
BRANCH_INDIRECT: 108806 0.217612%
BRANCH_CONDITIONAL: 6379326 12.7587%
BRANCH_DIRECT_CALL: 1048808 2.09762%
BRANCH_INDIRECT_CALL: 211109 0.422218%
BRANCH_RETURN: 1259924 2.51985%
BRANCH_OTHER: 0 0%

