Initialize SIGNATURE TABLE
ST_SET: 1
ST_WAY: 256
ST_TAG_BIT: 16
ST_TAG_MASK: ffff

Initialize PATTERN TABLE
PT_SET: 512
PT_WAY: 4
SIG_DELTA_BIT: 7
C_SIG_BIT: 4
C_DELTA_BIT: 4

Initialize PREFETCH FILTER
FILTER_SET: 1024

*** ChampSim Multicore Out-of-Order Simulator ***

Warmup Instructions: 50000000
Simulation Instructions: 50000000
Number of CPUs: 1
LLC sets: 2048
LLC ways: 16
Off-chip DRAM Size: 4096 MB Channels: 1 Width: 64-bit Data Rate: 3200 MT/s

CPU 0 runs /home/mbaradaran/ChampSim/dpc3_traces/spec_gcc_001.champsimtrace.xz
CPU 0 L1D next line prefetcher
Heartbeat CPU 0 instructions: 10000003 cycles: 3219077 heartbeat IPC: 3.10648 cumulative IPC: 3.10648 (Simulation time: 0 hr 1 min 26 sec) 
Heartbeat CPU 0 instructions: 20000002 cycles: 6463308 heartbeat IPC: 3.08239 cumulative IPC: 3.09439 (Simulation time: 0 hr 2 min 53 sec) 
Heartbeat CPU 0 instructions: 30000000 cycles: 9664455 heartbeat IPC: 3.12388 cumulative IPC: 3.10416 (Simulation time: 0 hr 4 min 12 sec) 
Heartbeat CPU 0 instructions: 40000001 cycles: 12904589 heartbeat IPC: 3.08629 cumulative IPC: 3.09967 (Simulation time: 0 hr 5 min 17 sec) 
Heartbeat CPU 0 instructions: 50000001 cycles: 16144527 heartbeat IPC: 3.08648 cumulative IPC: 3.09702 (Simulation time: 0 hr 6 min 58 sec) 

Warmup complete CPU 0 instructions: 50000001 cycles: 16144527 (Simulation time: 0 hr 6 min 58 sec) 

Heartbeat CPU 0 instructions: 60000000 cycles: 24237353 heartbeat IPC: 1.23566 cumulative IPC: 1.23566 (Simulation time: 0 hr 8 min 23 sec) 
Heartbeat CPU 0 instructions: 70000002 cycles: 32384194 heartbeat IPC: 1.22747 cumulative IPC: 1.23155 (Simulation time: 0 hr 9 min 29 sec) 
Heartbeat CPU 0 instructions: 80000000 cycles: 40043137 heartbeat IPC: 1.30566 cumulative IPC: 1.2553 (Simulation time: 0 hr 10 min 29 sec) 
Heartbeat CPU 0 instructions: 90000001 cycles: 48188921 heartbeat IPC: 1.22763 cumulative IPC: 1.24827 (Simulation time: 0 hr 11 min 30 sec) 
Heartbeat CPU 0 instructions: 100000000 cycles: 56657812 heartbeat IPC: 1.18079 cumulative IPC: 1.23416 (Simulation time: 0 hr 12 min 31 sec) 
Finished CPU 0 instructions: 50000000 cycles: 40513289 cumulative IPC: 1.23416 (Simulation time: 0 hr 12 min 31 sec) 

ChampSim completed all CPUs

Region of Interest Statistics

CPU 0 cumulative IPC: 1.23416 instructions: 50000000 cycles: 40513289

SHEET
IPC : 1.23416

L1D TOTAL     ACCESS:   19441775  HIT:   18336569  MISS:    1105206
L1D LOAD      ACCESS:    7288338  HIT:    6809824  MISS:     478514
L1D RFO       ACCESS:    5121694  HIT:    5042131  MISS:      79563
L1D PREFETCH  ACCESS:    7031743  HIT:    6484614  MISS:     547129
L1D WRITEBACK ACCESS:          0  HIT:          0  MISS:          0
L1D PREFETCH  REQUESTED:    7331189  ISSUED:    7232035  USEFUL:     276888  USELESS:     270254
L1D AVERAGE MISS LATENCY: 24.914 cycles
L1D

SHEET
L1D-total_access : 19441775
L1D-total_hit : 18336569
L1D-total_miss : 1105206
L1D-load_access : 7288338
L1D-load_hit : 6809824
L1D-load_miss : 478514
L1D-rfo_access : 5121694
L1D-rfo_hit : 5042131
L1D-rfo_miss : 79563
L1D-prefetch_access : 7031743
L1D-prefetch_hit : 6484614
L1D-prefetch_miss : 547129
L1D-writeback_access : 0
L1D-writeback_hit : 0
L1D-writeback_miss : 0
L1D-prefetch_requested : 7331189
L1D-prefetch_issued : 7232035
L1D-prefetch_useful : 276888
L1D-prefetch_useless : 270254
L1D-Avg_miss_latency : 24.914

L1I TOTAL     ACCESS:    9288647  HIT:    9068590  MISS:     220057
L1I LOAD      ACCESS:    9288647  HIT:    9068590  MISS:     220057
L1I RFO       ACCESS:          0  HIT:          0  MISS:          0
L1I PREFETCH  ACCESS:          0  HIT:          0  MISS:          0
L1I WRITEBACK ACCESS:          0  HIT:          0  MISS:          0
L1I PREFETCH  REQUESTED:          0  ISSUED:          0  USEFUL:          0  USELESS:          0
L1I AVERAGE MISS LATENCY: 25.3922 cycles
L1I

SHEET
L1I-total_access : 9288647
L1I-total_hit : 9068590
L1I-total_miss : 220057
L1I-load_access : 9288647
L1I-load_hit : 9068590
L1I-load_miss : 220057
L1I-rfo_access : 0
L1I-rfo_hit : 0
L1I-rfo_miss : 0
L1I-prefetch_access : 0
L1I-prefetch_hit : 0
L1I-prefetch_miss : 0
L1I-writeback_access : 0
L1I-writeback_hit : 0
L1I-writeback_miss : 0
L1I-prefetch_requested : 0
L1I-prefetch_issued : 0
L1I-prefetch_useful : 0
L1I-prefetch_useless : 0
L1I-Avg_miss_latency : 25.3922

L2C TOTAL     ACCESS:    2399436  HIT:    2177483  MISS:     221953
L2C LOAD      ACCESS:     671775  HIT:     573049  MISS:      98726
L2C RFO       ACCESS:      75067  HIT:      37971  MISS:      37096
L2C PREFETCH  ACCESS:    1398834  HIT:    1313081  MISS:      85753
L2C WRITEBACK ACCESS:     253760  HIT:     253382  MISS:        378
L2C PREFETCH  REQUESTED:    1531577  ISSUED:    1531471  USEFUL:      26642  USELESS:      58422
L2C AVERAGE MISS LATENCY: 64.3604 cycles
L2C

SHEET
L2C-total_access : 2399436
L2C-total_hit : 2177483
L2C-total_miss : 221953
L2C-load_access : 671775
L2C-load_hit : 573049
L2C-load_miss : 98726
L2C-rfo_access : 75067
L2C-rfo_hit : 37971
L2C-rfo_miss : 37096
L2C-prefetch_access : 1398834
L2C-prefetch_hit : 1313081
L2C-prefetch_miss : 85753
L2C-writeback_access : 253760
L2C-writeback_hit : 253382
L2C-writeback_miss : 378
L2C-prefetch_requested : 1531577
L2C-prefetch_issued : 1531471
L2C-prefetch_useful : 26642
L2C-prefetch_useless : 58422
L2C-Avg_miss_latency : 64.3604

LLC TOTAL     ACCESS:     561413  HIT:     491619  MISS:      69794
LLC LOAD      ACCESS:      98531  HIT:      85942  MISS:      12589
LLC RFO       ACCESS:      37096  HIT:      16738  MISS:      20358
LLC PREFETCH  ACCESS:     340041  HIT:     304276  MISS:      35765
LLC WRITEBACK ACCESS:      85745  HIT:      84663  MISS:       1082
LLC PREFETCH  REQUESTED:          0  ISSUED:          0  USEFUL:      13720  USELESS:      21566
LLC AVERAGE MISS LATENCY: 184.651 cycles
LLC

SHEET
LLC-total_access : 561413
LLC-total_hit : 491619
LLC-total_miss : 69794
LLC-load_access : 98531
LLC-load_hit : 85942
LLC-load_miss : 12589
LLC-rfo_access : 37096
LLC-rfo_hit : 16738
LLC-rfo_miss : 20358
LLC-prefetch_access : 340041
LLC-prefetch_hit : 304276
LLC-prefetch_miss : 35765
LLC-writeback_access : 85745
LLC-writeback_hit : 84663
LLC-writeback_miss : 1082
LLC-prefetch_requested : 0
LLC-prefetch_issued : 0
LLC-prefetch_useful : 13720
LLC-prefetch_useless : 21566
LLC-Avg_miss_latency : 184.651

Major fault: 0 Minor fault: 6865
CPU 0 L1D next line prefetcher final stats

DRAM Statistics
 CHANNEL 0
 RQ ROW_BUFFER_HIT:      19365  ROW_BUFFER_MISS:      49347
 DBUS_CONGESTED:      34820
 WQ ROW_BUFFER_HIT:       4616  ROW_BUFFER_MISS:      21948  FULL:          0

 AVG_CONGESTED_CYCLE: 6

CPU 0 Branch Prediction Accuracy: 95.8872% MPKI: 9.67286 Average ROB Occupancy at Mispredict: 63.2792

Branch types
NOT_BRANCH: 38240102 76.4802%
BRANCH_DIRECT_JUMP: 653296 1.30659%
BRANCH_INDIRECT: 37098 0.074196%
BRANCH_CONDITIONAL: 8897819 17.7956%
BRANCH_DIRECT_CALL: 992620 1.98524%
BRANCH_INDIRECT_CALL: 93046 0.186092%
BRANCH_RETURN: 1085674 2.17135%
BRANCH_OTHER: 0 0%

