Initialize SIGNATURE TABLE
ST_SET: 1
ST_WAY: 256
ST_TAG_BIT: 16
ST_TAG_MASK: ffff

Initialize PATTERN TABLE
PT_SET: 512
PT_WAY: 4
SIG_DELTA_BIT: 7
C_SIG_BIT: 4
C_DELTA_BIT: 4

Initialize PREFETCH FILTER
FILTER_SET: 1024
MANA initialize 
tds: 2 tdm: 2
size MANA SINGLE: 15.5 KB
size MANA NULTIPLE: 0 KB
size HOBPT: 0.703125 KB
size SRQ: 0.0644531 KB
size SABs: 0.0402832 KB
size prefetch queue: 0.453125 KB
total: 16.761 KB

*** ChampSim Multicore Out-of-Order Simulator ***

Warmup Instructions: 50000000
Simulation Instructions: 50000000
Number of CPUs: 1
LLC sets: 2048
LLC ways: 16
Off-chip DRAM Size: 4096 MB Channels: 1 Width: 64-bit Data Rate: 3200 MT/s

CPU 0 runs /home/mbaradaran/ChampSim/dpc3_traces/client_007.champsimtrace.xz
CPU 0 L1D next line prefetcher
Heartbeat CPU 0 instructions: 10000001 cycles: 3642771 heartbeat IPC: 2.74516 cumulative IPC: 2.74516 (Simulation time: 0 hr 1 min 20 sec) 
Heartbeat CPU 0 instructions: 20000003 cycles: 7035434 heartbeat IPC: 2.94754 cumulative IPC: 2.84275 (Simulation time: 0 hr 2 min 37 sec) 
Heartbeat CPU 0 instructions: 30000000 cycles: 10907774 heartbeat IPC: 2.58242 cumulative IPC: 2.75033 (Simulation time: 0 hr 4 min 5 sec) 
Heartbeat CPU 0 instructions: 40000003 cycles: 15067905 heartbeat IPC: 2.40377 cumulative IPC: 2.65465 (Simulation time: 0 hr 5 min 35 sec) 
Heartbeat CPU 0 instructions: 50000002 cycles: 18473422 heartbeat IPC: 2.93641 cumulative IPC: 2.70659 (Simulation time: 0 hr 6 min 54 sec) 

Warmup complete CPU 0 instructions: 50000002 cycles: 18473422 (Simulation time: 0 hr 6 min 54 sec) 

Heartbeat CPU 0 instructions: 60000003 cycles: 25531219 heartbeat IPC: 1.41687 cumulative IPC: 1.41687 (Simulation time: 0 hr 8 min 16 sec) 
Heartbeat CPU 0 instructions: 70000003 cycles: 34447679 heartbeat IPC: 1.12152 cumulative IPC: 1.25201 (Simulation time: 0 hr 9 min 51 sec) 
Heartbeat CPU 0 instructions: 80000002 cycles: 39841769 heartbeat IPC: 1.85388 cumulative IPC: 1.40395 (Simulation time: 0 hr 10 min 56 sec) 
Heartbeat CPU 0 instructions: 90000002 cycles: 47653210 heartbeat IPC: 1.28017 cumulative IPC: 1.37081 (Simulation time: 0 hr 12 min 17 sec) 
Heartbeat CPU 0 instructions: 100000002 cycles: 56601355 heartbeat IPC: 1.11755 cumulative IPC: 1.31137 (Simulation time: 0 hr 13 min 35 sec) 
Finished CPU 0 instructions: 50000000 cycles: 38127933 cumulative IPC: 1.31137 (Simulation time: 0 hr 13 min 35 sec) 

ChampSim completed all CPUs

Region of Interest Statistics

CPU 0 cumulative IPC: 1.31137 instructions: 50000000 cycles: 38127933

SHEET
IPC : 1.31137

L1D TOTAL     ACCESS:   21310227  HIT:   20140872  MISS:    1169355
L1D LOAD      ACCESS:    8423589  HIT:    7884832  MISS:     538757
L1D RFO       ACCESS:    4871564  HIT:    4780417  MISS:      91147
L1D PREFETCH  ACCESS:    8015074  HIT:    7475623  MISS:     539451
L1D WRITEBACK ACCESS:          0  HIT:          0  MISS:          0
L1D PREFETCH  REQUESTED:    8475899  ISSUED:    8234612  USEFUL:     158761  USELESS:     380705
L1D AVERAGE MISS LATENCY: 34.3709 cycles
L1D

SHEET
L1D-total_access : 21310227
L1D-total_hit : 20140872
L1D-total_miss : 1169355
L1D-load_access : 8423589
L1D-load_hit : 7884832
L1D-load_miss : 538757
L1D-rfo_access : 4871564
L1D-rfo_hit : 4780417
L1D-rfo_miss : 91147
L1D-prefetch_access : 8015074
L1D-prefetch_hit : 7475623
L1D-prefetch_miss : 539451
L1D-writeback_access : 0
L1D-writeback_hit : 0
L1D-writeback_miss : 0
L1D-prefetch_requested : 8475899
L1D-prefetch_issued : 8234612
L1D-prefetch_useful : 158761
L1D-prefetch_useless : 380705
L1D-Avg_miss_latency : 34.3709
L1D-Morteza_fill_l2_prefetches : 0

L1I TOTAL     ACCESS:   18283106  HIT:   17264634  MISS:    1018472
L1I LOAD      ACCESS:    9061120  HIT:    8870034  MISS:     191086
L1I RFO       ACCESS:          0  HIT:          0  MISS:          0
L1I PREFETCH  ACCESS:    9221986  HIT:    8394600  MISS:     827386
L1I WRITEBACK ACCESS:          0  HIT:          0  MISS:          0
L1I PREFETCH  REQUESTED:   10940708  ISSUED:   10886490  USEFUL:     676102  USELESS:     151329
L1I AVERAGE MISS LATENCY: 15.6254 cycles
L1I

SHEET
L1I-total_access : 18283106
L1I-total_hit : 17264634
L1I-total_miss : 1018472
L1I-load_access : 9061120
L1I-load_hit : 8870034
L1I-load_miss : 191086
L1I-rfo_access : 0
L1I-rfo_hit : 0
L1I-rfo_miss : 0
L1I-prefetch_access : 9221986
L1I-prefetch_hit : 8394600
L1I-prefetch_miss : 827386
L1I-writeback_access : 0
L1I-writeback_hit : 0
L1I-writeback_miss : 0
L1I-prefetch_requested : 10940708
L1I-prefetch_issued : 10886490
L1I-prefetch_useful : 676102
L1I-prefetch_useless : 151329
L1I-Avg_miss_latency : 15.6254
L1I-Morteza_fill_l2_prefetches : 0

L2C TOTAL     ACCESS:    3196186  HIT:    2989280  MISS:     206906
L2C LOAD      ACCESS:     647248  HIT:     576771  MISS:      70477
L2C RFO       ACCESS:      89496  HIT:      47899  MISS:      41597
L2C PREFETCH  ACCESS:    2131756  HIT:    2037122  MISS:      94634
L2C WRITEBACK ACCESS:     327686  HIT:     327488  MISS:        198
L2C PREFETCH  REQUESTED:    2485480  ISSUED:    2481502  USEFUL:       9440  USELESS:      84538
L2C AVERAGE MISS LATENCY: 124.322 cycles
L2C

SHEET
L2C-total_access : 3196186
L2C-total_hit : 2989280
L2C-total_miss : 206906
L2C-load_access : 647248
L2C-load_hit : 576771
L2C-load_miss : 70477
L2C-rfo_access : 89496
L2C-rfo_hit : 47899
L2C-rfo_miss : 41597
L2C-prefetch_access : 2131756
L2C-prefetch_hit : 2037122
L2C-prefetch_miss : 94634
L2C-writeback_access : 327686
L2C-writeback_hit : 327488
L2C-writeback_miss : 198
L2C-prefetch_requested : 2485480
L2C-prefetch_issued : 2481502
L2C-prefetch_useful : 9440
L2C-prefetch_useless : 84538
L2C-Avg_miss_latency : 124.322
L2C-Morteza_fill_l2_prefetches : 695436

LLC TOTAL     ACCESS:     973791  HIT:     805324  MISS:     168467
LLC LOAD      ACCESS:      70378  HIT:      35152  MISS:      35226
LLC RFO       ACCESS:      41597  HIT:       7172  MISS:      34425
LLC PREFETCH  ACCESS:     787356  HIT:     688856  MISS:      98500
LLC WRITEBACK ACCESS:      74460  HIT:      74144  MISS:        316
LLC PREFETCH  REQUESTED:          0  ISSUED:          0  USEFUL:      18985  USELESS:      79510
LLC AVERAGE MISS LATENCY: 181.15 cycles
LLC

SHEET
LLC-total_access : 973791
LLC-total_hit : 805324
LLC-total_miss : 168467
LLC-load_access : 70378
LLC-load_hit : 35152
LLC-load_miss : 35226
LLC-rfo_access : 41597
LLC-rfo_hit : 7172
LLC-rfo_miss : 34425
LLC-prefetch_access : 787356
LLC-prefetch_hit : 688856
LLC-prefetch_miss : 98500
LLC-writeback_access : 74460
LLC-writeback_hit : 74144
LLC-writeback_miss : 316
LLC-prefetch_requested : 0
LLC-prefetch_issued : 0
LLC-prefetch_useful : 18985
LLC-prefetch_useless : 79510
LLC-Avg_miss_latency : 181.15
LLC-Morteza_fill_l2_prefetches : 637258

Major fault: 0 Minor fault: 4405



Printing Logs
statHeadFound: 1866271
statHeadMissing: 1348928
statStreamBufferHit: 10453520
statPrefetchEntryFound: 7374820
statCompactorMatch: 12005390
statStreamTrackerLookup: 13668719
statRecord: 1663329
statGetPointer: 3215199
statEnqueuePrefetch: 22200821
statPrefetchQueueIsFull: 3544
StreamBufferHitRate: 0.764777
Regions' size: 5360
next_region_correct: 1070171
next_region_wrong: 587790
next_region_correct_prediction: 0.645474
statStreamBufferLookups: 136687190
statL1iLookups: 177606568
statCompactorLookups: 218699504
morteza: start

SHEET
mana_table_access_counter : 9041685
hobp_table_access_counter : 26892508
sab_access_counter : 17828340
srq_access_counter : 13450565

morteza: end
CPU 0 L1D next line prefetcher final stats

DRAM Statistics
 CHANNEL 0
 RQ ROW_BUFFER_HIT:      35636  ROW_BUFFER_MISS:     132510
 DBUS_CONGESTED:      95041
 WQ ROW_BUFFER_HIT:      13119  ROW_BUFFER_MISS:      45629  FULL:          0

 AVG_CONGESTED_CYCLE: 5

CPU 0 Branch Prediction Accuracy: 98.8607% MPKI: 1.8623 Average ROB Occupancy at Mispredict: 110.903

Branch types
NOT_BRANCH: 41826773 83.6535%
BRANCH_DIRECT_JUMP: 735330 1.47066%
BRANCH_INDIRECT: 269194 0.538388%
BRANCH_CONDITIONAL: 5957947 11.9159%
BRANCH_DIRECT_CALL: 368758 0.737516%
BRANCH_INDIRECT_CALL: 226975 0.45395%
BRANCH_RETURN: 614696 1.22939%
BRANCH_OTHER: 0 0%

