Initialize SIGNATURE TABLE
ST_SET: 1
ST_WAY: 256
ST_TAG_BIT: 16
ST_TAG_MASK: ffff

Initialize PATTERN TABLE
PT_SET: 512
PT_WAY: 4
SIG_DELTA_BIT: 7
C_SIG_BIT: 4
C_DELTA_BIT: 4

Initialize PREFETCH FILTER
FILTER_SET: 1024
MANA initialize 
tds: 2 tdm: 2
size MANA SINGLE: 15.5 KB
size MANA NULTIPLE: 0 KB
size HOBPT: 0.703125 KB
size SRQ: 0.0644531 KB
size SABs: 0.0402832 KB
size prefetch queue: 0.453125 KB
total: 16.761 KB

*** ChampSim Multicore Out-of-Order Simulator ***

Warmup Instructions: 50000000
Simulation Instructions: 50000000
Number of CPUs: 1
LLC sets: 2048
LLC ways: 16
Off-chip DRAM Size: 4096 MB Channels: 1 Width: 64-bit Data Rate: 3200 MT/s

CPU 0 runs /home/mbaradaran/ChampSim/dpc3_traces/client_001.champsimtrace.xz
CPU 0 L1D next line prefetcher
Heartbeat CPU 0 instructions: 10000003 cycles: 3410058 heartbeat IPC: 2.9325 cumulative IPC: 2.9325 (Simulation time: 0 hr 1 min 11 sec) 
Heartbeat CPU 0 instructions: 20000001 cycles: 7118406 heartbeat IPC: 2.69662 cumulative IPC: 2.80962 (Simulation time: 0 hr 2 min 29 sec) 
Heartbeat CPU 0 instructions: 30000001 cycles: 10480992 heartbeat IPC: 2.9739 cumulative IPC: 2.86232 (Simulation time: 0 hr 3 min 47 sec) 
Heartbeat CPU 0 instructions: 40000003 cycles: 14350689 heartbeat IPC: 2.58418 cumulative IPC: 2.78732 (Simulation time: 0 hr 5 min 6 sec) 
Heartbeat CPU 0 instructions: 50000003 cycles: 17647286 heartbeat IPC: 3.03343 cumulative IPC: 2.8333 (Simulation time: 0 hr 6 min 16 sec) 

Warmup complete CPU 0 instructions: 50000003 cycles: 17647286 (Simulation time: 0 hr 6 min 16 sec) 

Heartbeat CPU 0 instructions: 60000000 cycles: 26766882 heartbeat IPC: 1.09654 cumulative IPC: 1.09654 (Simulation time: 0 hr 7 min 34 sec) 
Heartbeat CPU 0 instructions: 70000000 cycles: 33236058 heartbeat IPC: 1.54579 cumulative IPC: 1.28297 (Simulation time: 0 hr 8 min 36 sec) 
Heartbeat CPU 0 instructions: 80000002 cycles: 42587660 heartbeat IPC: 1.06934 cumulative IPC: 1.20287 (Simulation time: 0 hr 10 min 3 sec) 
Heartbeat CPU 0 instructions: 90000000 cycles: 48939109 heartbeat IPC: 1.57444 cumulative IPC: 1.27829 (Simulation time: 0 hr 11 min 1 sec) 
Heartbeat CPU 0 instructions: 100000002 cycles: 57831373 heartbeat IPC: 1.12457 cumulative IPC: 1.24427 (Simulation time: 0 hr 12 min 11 sec) 
Finished CPU 0 instructions: 50000003 cycles: 40184088 cumulative IPC: 1.24427 (Simulation time: 0 hr 12 min 11 sec) 

ChampSim completed all CPUs

Region of Interest Statistics

CPU 0 cumulative IPC: 1.24427 instructions: 50000003 cycles: 40184088

SHEET
IPC : 1.24427

L1D TOTAL     ACCESS:   21304092  HIT:   20467577  MISS:     836515
L1D LOAD      ACCESS:    8852058  HIT:    8457325  MISS:     394733
L1D RFO       ACCESS:    4041793  HIT:    3982764  MISS:      59029
L1D PREFETCH  ACCESS:    8410241  HIT:    8027488  MISS:     382753
L1D WRITEBACK ACCESS:          0  HIT:          0  MISS:          0
L1D PREFETCH  REQUESTED:    8897870  ISSUED:    8589318  USEFUL:     129655  USELESS:     253072
L1D AVERAGE MISS LATENCY: 47.1798 cycles
L1D

SHEET
L1D-total_access : 21304092
L1D-total_hit : 20467577
L1D-total_miss : 836515
L1D-load_access : 8852058
L1D-load_hit : 8457325
L1D-load_miss : 394733
L1D-rfo_access : 4041793
L1D-rfo_hit : 3982764
L1D-rfo_miss : 59029
L1D-prefetch_access : 8410241
L1D-prefetch_hit : 8027488
L1D-prefetch_miss : 382753
L1D-writeback_access : 0
L1D-writeback_hit : 0
L1D-writeback_miss : 0
L1D-prefetch_requested : 8897870
L1D-prefetch_issued : 8589318
L1D-prefetch_useful : 129655
L1D-prefetch_useless : 253072
L1D-Avg_miss_latency : 47.1798
L1D-Morteza_fill_l2_prefetches : 0

L1I TOTAL     ACCESS:   19734285  HIT:   19273717  MISS:     460568
L1I LOAD      ACCESS:    8917755  HIT:    8824009  MISS:      93746
L1I RFO       ACCESS:          0  HIT:          0  MISS:          0
L1I PREFETCH  ACCESS:   10816530  HIT:   10449708  MISS:     366822
L1I WRITEBACK ACCESS:          0  HIT:          0  MISS:          0
L1I PREFETCH  REQUESTED:   12634392  ISSUED:   12556370  USEFUL:     305723  USELESS:      61103
L1I AVERAGE MISS LATENCY: 18.6444 cycles
L1I

SHEET
L1I-total_access : 19734285
L1I-total_hit : 19273717
L1I-total_miss : 460568
L1I-load_access : 8917755
L1I-load_hit : 8824009
L1I-load_miss : 93746
L1I-rfo_access : 0
L1I-rfo_hit : 0
L1I-rfo_miss : 0
L1I-prefetch_access : 10816530
L1I-prefetch_hit : 10449708
L1I-prefetch_miss : 366822
L1I-writeback_access : 0
L1I-writeback_hit : 0
L1I-writeback_miss : 0
L1I-prefetch_requested : 12634392
L1I-prefetch_issued : 12556370
L1I-prefetch_useful : 305723
L1I-prefetch_useless : 61103
L1I-Avg_miss_latency : 18.6444
L1I-Morteza_fill_l2_prefetches : 0

L2C TOTAL     ACCESS:    2005406  HIT:    1701454  MISS:     303952
L2C LOAD      ACCESS:     438576  HIT:     324144  MISS:     114432
L2C RFO       ACCESS:      58254  HIT:      21583  MISS:      36671
L2C PREFETCH  ACCESS:    1318971  HIT:    1166353  MISS:     152618
L2C WRITEBACK ACCESS:     189605  HIT:     189374  MISS:        231
L2C PREFETCH  REQUESTED:    1664247  ISSUED:    1660530  USEFUL:      13692  USELESS:     138129
L2C AVERAGE MISS LATENCY: 103.309 cycles
L2C

SHEET
L2C-total_access : 2005406
L2C-total_hit : 1701454
L2C-total_miss : 303952
L2C-load_access : 438576
L2C-load_hit : 324144
L2C-load_miss : 114432
L2C-rfo_access : 58254
L2C-rfo_hit : 21583
L2C-rfo_miss : 36671
L2C-prefetch_access : 1318971
L2C-prefetch_hit : 1166353
L2C-prefetch_miss : 152618
L2C-writeback_access : 189605
L2C-writeback_hit : 189374
L2C-writeback_miss : 231
L2C-prefetch_requested : 1664247
L2C-prefetch_issued : 1660530
L2C-prefetch_useful : 13692
L2C-prefetch_useless : 138129
L2C-Avg_miss_latency : 103.309
L2C-Morteza_fill_l2_prefetches : 517204

LLC TOTAL     ACCESS:     803913  HIT:     608679  MISS:     195234
LLC LOAD      ACCESS:     114091  HIT:      71742  MISS:      42349
LLC RFO       ACCESS:      36671  HIT:       8597  MISS:      28074
LLC PREFETCH  ACCESS:     547354  HIT:     423222  MISS:     124132
LLC WRITEBACK ACCESS:     105797  HIT:     105118  MISS:        679
LLC PREFETCH  REQUESTED:          0  ISSUED:          0  USEFUL:      29214  USELESS:      96818
LLC AVERAGE MISS LATENCY: 182.495 cycles
LLC

SHEET
LLC-total_access : 803913
LLC-total_hit : 608679
LLC-total_miss : 195234
LLC-load_access : 114091
LLC-load_hit : 71742
LLC-load_miss : 42349
LLC-rfo_access : 36671
LLC-rfo_hit : 8597
LLC-rfo_miss : 28074
LLC-prefetch_access : 547354
LLC-prefetch_hit : 423222
LLC-prefetch_miss : 124132
LLC-writeback_access : 105797
LLC-writeback_hit : 105118
LLC-writeback_miss : 679
LLC-prefetch_requested : 0
LLC-prefetch_issued : 0
LLC-prefetch_useful : 29214
LLC-prefetch_useless : 96818
LLC-Avg_miss_latency : 182.495
LLC-Morteza_fill_l2_prefetches : 328990

Major fault: 0 Minor fault: 3433



Printing Logs
statHeadFound: 1847354
statHeadMissing: 1273715
statStreamBufferHit: 9285453
statPrefetchEntryFound: 7092593
statCompactorMatch: 10929762
statStreamTrackerLookup: 12406522
statRecord: 1476760
statGetPointer: 3121069
statEnqueuePrefetch: 23387409
statPrefetchQueueIsFull: 10070
StreamBufferHitRate: 0.748433
Regions' size: 2267
next_region_correct: 1030992
next_region_wrong: 443493
next_region_correct_prediction: 0.699222
statStreamBufferLookups: 124065220
statL1iLookups: 187099272
statCompactorLookups: 198504352
morteza: start

SHEET
mana_table_access_counter : 8579415
hobp_table_access_counter : 25494010
sab_access_counter : 16378046
srq_access_counter : 12262277

morteza: end
CPU 0 L1D next line prefetcher final stats

DRAM Statistics
 CHANNEL 0
 RQ ROW_BUFFER_HIT:      48299  ROW_BUFFER_MISS:     146246
 DBUS_CONGESTED:     115492
 WQ ROW_BUFFER_HIT:      15955  ROW_BUFFER_MISS:      64641  FULL:          0

 AVG_CONGESTED_CYCLE: 5

CPU 0 Branch Prediction Accuracy: 97.9037% MPKI: 3.63418 Average ROB Occupancy at Mispredict: 85.1803

Branch types
NOT_BRANCH: 41331383 82.6628%
BRANCH_DIRECT_JUMP: 455615 0.91123%
BRANCH_INDIRECT: 20390 0.04078%
BRANCH_CONDITIONAL: 6745374 13.4907%
BRANCH_DIRECT_CALL: 494532 0.989064%
BRANCH_INDIRECT_CALL: 228815 0.45763%
BRANCH_RETURN: 723560 1.44712%
BRANCH_OTHER: 0 0%

