Initialize SIGNATURE TABLE
ST_SET: 1
ST_WAY: 256
ST_TAG_BIT: 16
ST_TAG_MASK: ffff

Initialize PATTERN TABLE
PT_SET: 512
PT_WAY: 4
SIG_DELTA_BIT: 7
C_SIG_BIT: 4
C_DELTA_BIT: 4

Initialize PREFETCH FILTER
FILTER_SET: 1024
MANA initialize 
tds: 2 tdm: 2
size MANA SINGLE: 15.5 KB
size MANA NULTIPLE: 0 KB
size HOBPT: 0.703125 KB
size SRQ: 0.0644531 KB
size SABs: 0.0402832 KB
size prefetch queue: 0.453125 KB
total: 16.761 KB

*** ChampSim Multicore Out-of-Order Simulator ***

Warmup Instructions: 50000000
Simulation Instructions: 50000000
Number of CPUs: 1
LLC sets: 2048
LLC ways: 16
Off-chip DRAM Size: 4096 MB Channels: 1 Width: 64-bit Data Rate: 3200 MT/s

CPU 0 runs /home/mbaradaran/ChampSim/dpc3_traces/client_003.champsimtrace.xz
CPU 0 L1D next line prefetcher
Heartbeat CPU 0 instructions: 10000000 cycles: 3478298 heartbeat IPC: 2.87497 cumulative IPC: 2.87497 (Simulation time: 0 hr 1 min 16 sec) 
Heartbeat CPU 0 instructions: 20000002 cycles: 6932844 heartbeat IPC: 2.89474 cumulative IPC: 2.88482 (Simulation time: 0 hr 2 min 33 sec) 
Heartbeat CPU 0 instructions: 30000003 cycles: 10494000 heartbeat IPC: 2.80808 cumulative IPC: 2.85878 (Simulation time: 0 hr 3 min 52 sec) 
Heartbeat CPU 0 instructions: 40000001 cycles: 14110501 heartbeat IPC: 2.7651 cumulative IPC: 2.83477 (Simulation time: 0 hr 5 min 18 sec) 
Heartbeat CPU 0 instructions: 50000003 cycles: 17655745 heartbeat IPC: 2.82068 cumulative IPC: 2.83194 (Simulation time: 0 hr 6 min 36 sec) 

Warmup complete CPU 0 instructions: 50000003 cycles: 17655745 (Simulation time: 0 hr 6 min 36 sec) 

Heartbeat CPU 0 instructions: 60000002 cycles: 24128557 heartbeat IPC: 1.54492 cumulative IPC: 1.54492 (Simulation time: 0 hr 7 min 44 sec) 
Heartbeat CPU 0 instructions: 70000001 cycles: 30359420 heartbeat IPC: 1.60491 cumulative IPC: 1.57435 (Simulation time: 0 hr 8 min 58 sec) 
Heartbeat CPU 0 instructions: 80000003 cycles: 37469044 heartbeat IPC: 1.40654 cumulative IPC: 1.51413 (Simulation time: 0 hr 10 min 6 sec) 
Heartbeat CPU 0 instructions: 90000000 cycles: 46544419 heartbeat IPC: 1.10188 cumulative IPC: 1.38463 (Simulation time: 0 hr 11 min 4 sec) 
Heartbeat CPU 0 instructions: 100000003 cycles: 57462109 heartbeat IPC: 0.915945 cumulative IPC: 1.25608 (Simulation time: 0 hr 12 min 12 sec) 
Finished CPU 0 instructions: 50000000 cycles: 39806364 cumulative IPC: 1.25608 (Simulation time: 0 hr 12 min 12 sec) 

ChampSim completed all CPUs

Region of Interest Statistics

CPU 0 cumulative IPC: 1.25608 instructions: 50000000 cycles: 39806364

SHEET
IPC : 1.25608

L1D TOTAL     ACCESS:   17798171  HIT:   17302031  MISS:     496140
L1D LOAD      ACCESS:    6113956  HIT:    5988840  MISS:     125116
L1D RFO       ACCESS:    5954258  HIT:    5720019  MISS:     234239
L1D PREFETCH  ACCESS:    5729957  HIT:    5593172  MISS:     136785
L1D WRITEBACK ACCESS:          0  HIT:          0  MISS:          0
L1D PREFETCH  REQUESTED:    6155648  ISSUED:    6013713  USEFUL:      68723  USELESS:      68109
L1D AVERAGE MISS LATENCY: 123.713 cycles
L1D

SHEET
L1D-total_access : 17798171
L1D-total_hit : 17302031
L1D-total_miss : 496140
L1D-load_access : 6113956
L1D-load_hit : 5988840
L1D-load_miss : 125116
L1D-rfo_access : 5954258
L1D-rfo_hit : 5720019
L1D-rfo_miss : 234239
L1D-prefetch_access : 5729957
L1D-prefetch_hit : 5593172
L1D-prefetch_miss : 136785
L1D-writeback_access : 0
L1D-writeback_hit : 0
L1D-writeback_miss : 0
L1D-prefetch_requested : 6155648
L1D-prefetch_issued : 6013713
L1D-prefetch_useful : 68723
L1D-prefetch_useless : 68109
L1D-Avg_miss_latency : 123.713
L1D-Morteza_fill_l2_prefetches : 0

L1I TOTAL     ACCESS:   18215079  HIT:   17183687  MISS:    1031392
L1I LOAD      ACCESS:    9449650  HIT:    9174698  MISS:     274952
L1I RFO       ACCESS:          0  HIT:          0  MISS:          0
L1I PREFETCH  ACCESS:    8765429  HIT:    8008989  MISS:     756440
L1I WRITEBACK ACCESS:          0  HIT:          0  MISS:          0
L1I PREFETCH  REQUESTED:    9876600  ISSUED:    9866732  USEFUL:     490859  USELESS:     265629
L1I AVERAGE MISS LATENCY: 17.1633 cycles
L1I

SHEET
L1I-total_access : 18215079
L1I-total_hit : 17183687
L1I-total_miss : 1031392
L1I-load_access : 9449650
L1I-load_hit : 9174698
L1I-load_miss : 274952
L1I-rfo_access : 0
L1I-rfo_hit : 0
L1I-rfo_miss : 0
L1I-prefetch_access : 8765429
L1I-prefetch_hit : 8008989
L1I-prefetch_miss : 756440
L1I-writeback_access : 0
L1I-writeback_hit : 0
L1I-writeback_miss : 0
L1I-prefetch_requested : 9876600
L1I-prefetch_issued : 9866732
L1I-prefetch_useful : 490859
L1I-prefetch_useless : 265629
L1I-Avg_miss_latency : 17.1633
L1I-Morteza_fill_l2_prefetches : 0

L2C TOTAL     ACCESS:    2273425  HIT:    1880833  MISS:     392592
L2C LOAD      ACCESS:     273646  HIT:     221027  MISS:      52619
L2C RFO       ACCESS:     232199  HIT:      26008  MISS:     206191
L2C PREFETCH  ACCESS:    1498279  HIT:    1365538  MISS:     132741
L2C WRITEBACK ACCESS:     269301  HIT:     268260  MISS:       1041
L2C PREFETCH  REQUESTED:    1422850  ISSUED:    1422569  USEFUL:      11873  USELESS:     120300
L2C AVERAGE MISS LATENCY: 167.944 cycles
L2C

SHEET
L2C-total_access : 2273425
L2C-total_hit : 1880833
L2C-total_miss : 392592
L2C-load_access : 273646
L2C-load_hit : 221027
L2C-load_miss : 52619
L2C-rfo_access : 232199
L2C-rfo_hit : 26008
L2C-rfo_miss : 206191
L2C-prefetch_access : 1498279
L2C-prefetch_hit : 1365538
L2C-prefetch_miss : 132741
L2C-writeback_access : 269301
L2C-writeback_hit : 268260
L2C-writeback_miss : 1041
L2C-prefetch_requested : 1422850
L2C-prefetch_issued : 1422569
L2C-prefetch_useful : 11873
L2C-prefetch_useless : 120300
L2C-Avg_miss_latency : 167.944
L2C-Morteza_fill_l2_prefetches : 466209

LLC TOTAL     ACCESS:    1011557  HIT:     725699  MISS:     285858
LLC LOAD      ACCESS:      52512  HIT:      37037  MISS:      15475
LLC RFO       ACCESS:     206182  HIT:      34326  MISS:     171856
LLC PREFETCH  ACCESS:     529014  HIT:     430844  MISS:      98170
LLC WRITEBACK ACCESS:     223849  HIT:     223492  MISS:        357
LLC PREFETCH  REQUESTED:          0  ISSUED:          0  USEFUL:      12786  USELESS:      84371
LLC AVERAGE MISS LATENCY: 231.251 cycles
LLC

SHEET
LLC-total_access : 1011557
LLC-total_hit : 725699
LLC-total_miss : 285858
LLC-load_access : 52512
LLC-load_hit : 37037
LLC-load_miss : 15475
LLC-rfo_access : 206182
LLC-rfo_hit : 34326
LLC-rfo_miss : 171856
LLC-prefetch_access : 529014
LLC-prefetch_hit : 430844
LLC-prefetch_miss : 98170
LLC-writeback_access : 223849
LLC-writeback_hit : 223492
LLC-writeback_miss : 357
LLC-prefetch_requested : 0
LLC-prefetch_issued : 0
LLC-prefetch_useful : 12786
LLC-prefetch_useless : 84371
LLC-Avg_miss_latency : 231.251
LLC-Morteza_fill_l2_prefetches : 363699

Major fault: 0 Minor fault: 5042



Printing Logs
statHeadFound: 2255894
statHeadMissing: 1962845
statStreamBufferHit: 9802627
statPrefetchEntryFound: 9086068
statCompactorMatch: 11117901
statStreamTrackerLookup: 14021366
statRecord: 2903465
statGetPointer: 4218739
statEnqueuePrefetch: 23287616
statPrefetchQueueIsFull: 2740
StreamBufferHitRate: 0.699121
Regions' size: 9164
next_region_correct: 2012775
next_region_wrong: 881518
next_region_correct_prediction: 0.695429
statStreamBufferLookups: 140213660
statL1iLookups: 186300928
statCompactorLookups: 224341856
morteza: start

SHEET
mana_table_access_counter : 11992265
hobp_table_access_counter : 37577627
sab_access_counter : 18888695
srq_access_counter : 15632825

morteza: end
CPU 0 L1D next line prefetcher final stats

DRAM Statistics
 CHANNEL 0
 RQ ROW_BUFFER_HIT:      99519  ROW_BUFFER_MISS:     185978
 DBUS_CONGESTED:     258835
 WQ ROW_BUFFER_HIT:      59411  ROW_BUFFER_MISS:     119662  FULL:          0

 AVG_CONGESTED_CYCLE: 6

CPU 0 Branch Prediction Accuracy: 98.6631% MPKI: 2.66884 Average ROB Occupancy at Mispredict: 67.9892

Branch types
NOT_BRANCH: 40018725 80.0375%
BRANCH_DIRECT_JUMP: 370861 0.741722%
BRANCH_INDIRECT: 83252 0.166504%
BRANCH_CONDITIONAL: 7877430 15.7549%
BRANCH_DIRECT_CALL: 722312 1.44462%
BRANCH_INDIRECT_CALL: 101901 0.203802%
BRANCH_RETURN: 825355 1.65071%
BRANCH_OTHER: 0 0%

