Initialize SIGNATURE TABLE
ST_SET: 1
ST_WAY: 256
ST_TAG_BIT: 16
ST_TAG_MASK: ffff

Initialize PATTERN TABLE
PT_SET: 512
PT_WAY: 4
SIG_DELTA_BIT: 7
C_SIG_BIT: 4
C_DELTA_BIT: 4

Initialize PREFETCH FILTER
FILTER_SET: 1024
MANA initialize 
tds: 2 tdm: 2
size MANA SINGLE: 15.5 KB
size MANA NULTIPLE: 0 KB
size HOBPT: 0.703125 KB
size SRQ: 0.0644531 KB
size SABs: 0.0402832 KB
size prefetch queue: 0.453125 KB
total: 16.761 KB

*** ChampSim Multicore Out-of-Order Simulator ***

Warmup Instructions: 50000000
Simulation Instructions: 50000000
Number of CPUs: 1
LLC sets: 2048
LLC ways: 16
Off-chip DRAM Size: 4096 MB Channels: 1 Width: 64-bit Data Rate: 3200 MT/s

CPU 0 runs /home/mbaradaran/ChampSim/dpc3_traces/client_006.champsimtrace.xz
CPU 0 L1D next line prefetcher
Heartbeat CPU 0 instructions: 10000003 cycles: 4267394 heartbeat IPC: 2.34335 cumulative IPC: 2.34335 (Simulation time: 0 hr 1 min 32 sec) 
Heartbeat CPU 0 instructions: 20000000 cycles: 8307504 heartbeat IPC: 2.47518 cumulative IPC: 2.40746 (Simulation time: 0 hr 2 min 57 sec) 
Heartbeat CPU 0 instructions: 30000003 cycles: 11370741 heartbeat IPC: 3.26452 cumulative IPC: 2.63835 (Simulation time: 0 hr 4 min 0 sec) 
Heartbeat CPU 0 instructions: 40000000 cycles: 14715518 heartbeat IPC: 2.98974 cumulative IPC: 2.71822 (Simulation time: 0 hr 5 min 11 sec) 
Heartbeat CPU 0 instructions: 50000003 cycles: 18820417 heartbeat IPC: 2.43611 cumulative IPC: 2.65669 (Simulation time: 0 hr 6 min 38 sec) 

Warmup complete CPU 0 instructions: 50000003 cycles: 18820417 (Simulation time: 0 hr 6 min 38 sec) 

Heartbeat CPU 0 instructions: 60000001 cycles: 26839914 heartbeat IPC: 1.24696 cumulative IPC: 1.24696 (Simulation time: 0 hr 7 min 44 sec) 
Heartbeat CPU 0 instructions: 70000003 cycles: 36618545 heartbeat IPC: 1.02264 cumulative IPC: 1.12371 (Simulation time: 0 hr 9 min 8 sec) 
Heartbeat CPU 0 instructions: 80000002 cycles: 45142359 heartbeat IPC: 1.17318 cumulative IPC: 1.13973 (Simulation time: 0 hr 10 min 12 sec) 
Heartbeat CPU 0 instructions: 90000003 cycles: 53003017 heartbeat IPC: 1.27216 cumulative IPC: 1.17019 (Simulation time: 0 hr 11 min 18 sec) 
Heartbeat CPU 0 instructions: 100000001 cycles: 61382529 heartbeat IPC: 1.19339 cumulative IPC: 1.17475 (Simulation time: 0 hr 12 min 22 sec) 
Finished CPU 0 instructions: 50000002 cycles: 42562113 cumulative IPC: 1.17475 (Simulation time: 0 hr 12 min 22 sec) 

ChampSim completed all CPUs

Region of Interest Statistics

CPU 0 cumulative IPC: 1.17475 instructions: 50000002 cycles: 42562113

SHEET
IPC : 1.17475

L1D TOTAL     ACCESS:   16671123  HIT:   15944347  MISS:     726776
L1D LOAD      ACCESS:    6400779  HIT:    5994472  MISS:     406307
L1D RFO       ACCESS:    4340333  HIT:    4297697  MISS:      42636
L1D PREFETCH  ACCESS:    5930011  HIT:    5652178  MISS:     277833
L1D WRITEBACK ACCESS:          0  HIT:          0  MISS:          0
L1D PREFETCH  REQUESTED:    6442295  ISSUED:    6262514  USEFUL:     116853  USELESS:     160855
L1D AVERAGE MISS LATENCY: 81.6068 cycles
L1D

SHEET
L1D-total_access : 16671123
L1D-total_hit : 15944347
L1D-total_miss : 726776
L1D-load_access : 6400779
L1D-load_hit : 5994472
L1D-load_miss : 406307
L1D-rfo_access : 4340333
L1D-rfo_hit : 4297697
L1D-rfo_miss : 42636
L1D-prefetch_access : 5930011
L1D-prefetch_hit : 5652178
L1D-prefetch_miss : 277833
L1D-writeback_access : 0
L1D-writeback_hit : 0
L1D-writeback_miss : 0
L1D-prefetch_requested : 6442295
L1D-prefetch_issued : 6262514
L1D-prefetch_useful : 116853
L1D-prefetch_useless : 160855
L1D-Avg_miss_latency : 81.6068
L1D-Morteza_fill_l2_prefetches : 0

L1I TOTAL     ACCESS:   18671731  HIT:   17771947  MISS:     899784
L1I LOAD      ACCESS:    8441168  HIT:    8302173  MISS:     138995
L1I RFO       ACCESS:          0  HIT:          0  MISS:          0
L1I PREFETCH  ACCESS:   10230563  HIT:    9469774  MISS:     760789
L1I WRITEBACK ACCESS:          0  HIT:          0  MISS:          0
L1I PREFETCH  REQUESTED:   11958522  ISSUED:   11867161  USEFUL:     667745  USELESS:      93088
L1I AVERAGE MISS LATENCY: 20.8063 cycles
L1I

SHEET
L1I-total_access : 18671731
L1I-total_hit : 17771947
L1I-total_miss : 899784
L1I-load_access : 8441168
L1I-load_hit : 8302173
L1I-load_miss : 138995
L1I-rfo_access : 0
L1I-rfo_hit : 0
L1I-rfo_miss : 0
L1I-prefetch_access : 10230563
L1I-prefetch_hit : 9469774
L1I-prefetch_miss : 760789
L1I-writeback_access : 0
L1I-writeback_hit : 0
L1I-writeback_miss : 0
L1I-prefetch_requested : 11958522
L1I-prefetch_issued : 11867161
L1I-prefetch_useful : 667745
L1I-prefetch_useless : 93088
L1I-Avg_miss_latency : 20.8063
L1I-Morteza_fill_l2_prefetches : 0

L2C TOTAL     ACCESS:    2329590  HIT:    1785148  MISS:     544442
L2C LOAD      ACCESS:     407919  HIT:     167655  MISS:     240264
L2C RFO       ACCESS:      42366  HIT:      12459  MISS:      29907
L2C PREFETCH  ACCESS:    1703326  HIT:    1429782  MISS:     273544
L2C WRITEBACK ACCESS:     175979  HIT:     175252  MISS:        727
L2C PREFETCH  REQUESTED:    2675009  ISSUED:    2654317  USEFUL:      12308  USELESS:     261808
L2C AVERAGE MISS LATENCY: 116.036 cycles
L2C

SHEET
L2C-total_access : 2329590
L2C-total_hit : 1785148
L2C-total_miss : 544442
L2C-load_access : 407919
L2C-load_hit : 167655
L2C-load_miss : 240264
L2C-rfo_access : 42366
L2C-rfo_hit : 12459
L2C-rfo_miss : 29907
L2C-prefetch_access : 1703326
L2C-prefetch_hit : 1429782
L2C-prefetch_miss : 273544
L2C-writeback_access : 175979
L2C-writeback_hit : 175252
L2C-writeback_miss : 727
L2C-prefetch_requested : 2675009
L2C-prefetch_issued : 2654317
L2C-prefetch_useful : 12308
L2C-prefetch_useless : 261808
L2C-Avg_miss_latency : 116.036
L2C-Morteza_fill_l2_prefetches : 525577

LLC TOTAL     ACCESS:    1293675  HIT:     912071  MISS:     381604
LLC LOAD      ACCESS:     230120  HIT:     135053  MISS:      95067
LLC RFO       ACCESS:      29907  HIT:       5107  MISS:      24800
LLC PREFETCH  ACCESS:     899743  HIT:     638593  MISS:     261150
LLC WRITEBACK ACCESS:     133905  HIT:     133318  MISS:        587
LLC PREFETCH  REQUESTED:          0  ISSUED:          0  USEFUL:      41723  USELESS:     223086
LLC AVERAGE MISS LATENCY: 196.021 cycles
LLC

SHEET
LLC-total_access : 1293675
LLC-total_hit : 912071
LLC-total_miss : 381604
LLC-load_access : 230120
LLC-load_hit : 135053
LLC-load_miss : 95067
LLC-rfo_access : 29907
LLC-rfo_hit : 5107
LLC-rfo_miss : 24800
LLC-prefetch_access : 899743
LLC-prefetch_hit : 638593
LLC-prefetch_miss : 261150
LLC-writeback_access : 133905
LLC-writeback_hit : 133318
LLC-writeback_miss : 587
LLC-prefetch_requested : 0
LLC-prefetch_issued : 0
LLC-prefetch_useful : 41723
LLC-prefetch_useless : 223086
LLC-Avg_miss_latency : 196.021
LLC-Morteza_fill_l2_prefetches : 505294

Major fault: 0 Minor fault: 10527



Printing Logs
statHeadFound: 2014265
statHeadMissing: 1108610
statStreamBufferHit: 8685499
statPrefetchEntryFound: 7717596
statCompactorMatch: 10425970
statStreamTrackerLookup: 11808374
statRecord: 1382404
statGetPointer: 3122875
statEnqueuePrefetch: 24616915
statPrefetchQueueIsFull: 7947
StreamBufferHitRate: 0.735537
Regions' size: 2824
next_region_correct: 969431
next_region_wrong: 410141
next_region_correct_prediction: 0.702704
statStreamBufferLookups: 118083740
statL1iLookups: 196935320
statCompactorLookups: 188933984
morteza: start

SHEET
mana_table_access_counter : 9107939
hobp_table_access_counter : 25746706
sab_access_counter : 16403095
srq_access_counter : 11442871

morteza: end
CPU 0 L1D next line prefetcher final stats

DRAM Statistics
 CHANNEL 0
 RQ ROW_BUFFER_HIT:     100598  ROW_BUFFER_MISS:     280403
 DBUS_CONGESTED:     223753
 WQ ROW_BUFFER_HIT:      22118  ROW_BUFFER_MISS:      92297  FULL:          0

 AVG_CONGESTED_CYCLE: 5

CPU 0 Branch Prediction Accuracy: 98.1683% MPKI: 3.13642 Average ROB Occupancy at Mispredict: 84.5907

Branch types
NOT_BRANCH: 41438071 82.8761%
BRANCH_DIRECT_JUMP: 413829 0.827658%
BRANCH_INDIRECT: 47058 0.094116%
BRANCH_CONDITIONAL: 6843835 13.6877%
BRANCH_DIRECT_CALL: 536885 1.07377%
BRANCH_INDIRECT_CALL: 90642 0.181284%
BRANCH_RETURN: 629329 1.25866%
BRANCH_OTHER: 0 0%

