Initialize SIGNATURE TABLE
ST_SET: 1
ST_WAY: 256
ST_TAG_BIT: 16
ST_TAG_MASK: ffff

Initialize PATTERN TABLE
PT_SET: 512
PT_WAY: 4
SIG_DELTA_BIT: 7
C_SIG_BIT: 4
C_DELTA_BIT: 4

Initialize PREFETCH FILTER
FILTER_SET: 1024
MANA initialize 
tds: 2 tdm: 2
size MANA SINGLE: 15.5 KB
size MANA NULTIPLE: 0 KB
size HOBPT: 0.703125 KB
size SRQ: 0.0644531 KB
size SABs: 0.0402832 KB
size prefetch queue: 0.453125 KB
total: 16.761 KB

*** ChampSim Multicore Out-of-Order Simulator ***

Warmup Instructions: 50000000
Simulation Instructions: 50000000
Number of CPUs: 1
LLC sets: 2048
LLC ways: 16
Off-chip DRAM Size: 4096 MB Channels: 1 Width: 64-bit Data Rate: 3200 MT/s

CPU 0 runs /home/mbaradaran/ChampSim/dpc3_traces/client_008.champsimtrace.xz
CPU 0 L1D next line prefetcher
Heartbeat CPU 0 instructions: 10000001 cycles: 3752057 heartbeat IPC: 2.66521 cumulative IPC: 2.66521 (Simulation time: 0 hr 1 min 33 sec) 
Heartbeat CPU 0 instructions: 20000001 cycles: 7526054 heartbeat IPC: 2.64971 cumulative IPC: 2.65744 (Simulation time: 0 hr 3 min 2 sec) 
Heartbeat CPU 0 instructions: 30000000 cycles: 11251788 heartbeat IPC: 2.68403 cumulative IPC: 2.66624 (Simulation time: 0 hr 4 min 28 sec) 
Heartbeat CPU 0 instructions: 40000002 cycles: 15043933 heartbeat IPC: 2.63703 cumulative IPC: 2.65888 (Simulation time: 0 hr 5 min 55 sec) 
Heartbeat CPU 0 instructions: 50000003 cycles: 18833727 heartbeat IPC: 2.63867 cumulative IPC: 2.65481 (Simulation time: 0 hr 7 min 26 sec) 

Warmup complete CPU 0 instructions: 50000003 cycles: 18833727 (Simulation time: 0 hr 7 min 26 sec) 

Heartbeat CPU 0 instructions: 60000000 cycles: 27103887 heartbeat IPC: 1.20917 cumulative IPC: 1.20917 (Simulation time: 0 hr 8 min 53 sec) 
Heartbeat CPU 0 instructions: 70000000 cycles: 35076166 heartbeat IPC: 1.25435 cumulative IPC: 1.23134 (Simulation time: 0 hr 10 min 32 sec) 
Heartbeat CPU 0 instructions: 80000001 cycles: 44221044 heartbeat IPC: 1.09351 cumulative IPC: 1.18169 (Simulation time: 0 hr 11 min 52 sec) 
Heartbeat CPU 0 instructions: 90000000 cycles: 51616302 heartbeat IPC: 1.35222 cumulative IPC: 1.22016 (Simulation time: 0 hr 13 min 12 sec) 
Heartbeat CPU 0 instructions: 100000001 cycles: 59689527 heartbeat IPC: 1.23866 cumulative IPC: 1.22382 (Simulation time: 0 hr 14 min 38 sec) 
Finished CPU 0 instructions: 50000002 cycles: 40855801 cumulative IPC: 1.22382 (Simulation time: 0 hr 14 min 38 sec) 

ChampSim completed all CPUs

Region of Interest Statistics

CPU 0 cumulative IPC: 1.22382 instructions: 50000002 cycles: 40855801

SHEET
IPC : 1.22382

L1D TOTAL     ACCESS:   20532044  HIT:   18903352  MISS:    1628692
L1D LOAD      ACCESS:    8085298  HIT:    7286634  MISS:     798664
L1D RFO       ACCESS:    4817352  HIT:    4707813  MISS:     109539
L1D PREFETCH  ACCESS:    7629394  HIT:    6908905  MISS:     720489
L1D WRITEBACK ACCESS:          0  HIT:          0  MISS:          0
L1D PREFETCH  REQUESTED:    8154424  ISSUED:    7986560  USEFUL:     200521  USELESS:     519973
L1D AVERAGE MISS LATENCY: 32.7206 cycles
L1D

SHEET
L1D-total_access : 20532044
L1D-total_hit : 18903352
L1D-total_miss : 1628692
L1D-load_access : 8085298
L1D-load_hit : 7286634
L1D-load_miss : 798664
L1D-rfo_access : 4817352
L1D-rfo_hit : 4707813
L1D-rfo_miss : 109539
L1D-prefetch_access : 7629394
L1D-prefetch_hit : 6908905
L1D-prefetch_miss : 720489
L1D-writeback_access : 0
L1D-writeback_hit : 0
L1D-writeback_miss : 0
L1D-prefetch_requested : 8154424
L1D-prefetch_issued : 7986560
L1D-prefetch_useful : 200521
L1D-prefetch_useless : 519973
L1D-Avg_miss_latency : 32.7206
L1D-Morteza_fill_l2_prefetches : 0

L1I TOTAL     ACCESS:   22936725  HIT:   21834112  MISS:    1102613
L1I LOAD      ACCESS:    9698429  HIT:    9451816  MISS:     246613
L1I RFO       ACCESS:          0  HIT:          0  MISS:          0
L1I PREFETCH  ACCESS:   13238296  HIT:   12382296  MISS:     856000
L1I WRITEBACK ACCESS:          0  HIT:          0  MISS:          0
L1I PREFETCH  REQUESTED:   15785244  ISSUED:   15756287  USEFUL:     584297  USELESS:     271739
L1I AVERAGE MISS LATENCY: 16.6509 cycles
L1I

SHEET
L1I-total_access : 22936725
L1I-total_hit : 21834112
L1I-total_miss : 1102613
L1I-load_access : 9698429
L1I-load_hit : 9451816
L1I-load_miss : 246613
L1I-rfo_access : 0
L1I-rfo_hit : 0
L1I-rfo_miss : 0
L1I-prefetch_access : 13238296
L1I-prefetch_hit : 12382296
L1I-prefetch_miss : 856000
L1I-writeback_access : 0
L1I-writeback_hit : 0
L1I-writeback_miss : 0
L1I-prefetch_requested : 15785244
L1I-prefetch_issued : 15756287
L1I-prefetch_useful : 584297
L1I-prefetch_useless : 271739
L1I-Avg_miss_latency : 16.6509
L1I-Morteza_fill_l2_prefetches : 0

L2C TOTAL     ACCESS:    3864662  HIT:    3417522  MISS:     447140
L2C LOAD      ACCESS:     933566  HIT:     763243  MISS:     170323
L2C RFO       ACCESS:     104288  HIT:      18308  MISS:      85980
L2C PREFETCH  ACCESS:    2644814  HIT:    2454391  MISS:     190423
L2C WRITEBACK ACCESS:     181994  HIT:     181580  MISS:        414
L2C PREFETCH  REQUESTED:    3027472  ISSUED:    3017873  USEFUL:      18765  USELESS:     172805
L2C AVERAGE MISS LATENCY: 76.9197 cycles
L2C

SHEET
L2C-total_access : 3864662
L2C-total_hit : 3417522
L2C-total_miss : 447140
L2C-load_access : 933566
L2C-load_hit : 763243
L2C-load_miss : 170323
L2C-rfo_access : 104288
L2C-rfo_hit : 18308
L2C-rfo_miss : 85980
L2C-prefetch_access : 2644814
L2C-prefetch_hit : 2454391
L2C-prefetch_miss : 190423
L2C-writeback_access : 181994
L2C-writeback_hit : 181580
L2C-writeback_miss : 414
L2C-prefetch_requested : 3027472
L2C-prefetch_issued : 3017873
L2C-prefetch_useful : 18765
L2C-prefetch_useless : 172805
L2C-Avg_miss_latency : 76.9197
L2C-Morteza_fill_l2_prefetches : 963321

LLC TOTAL     ACCESS:    1447937  HIT:    1265236  MISS:     182701
LLC LOAD      ACCESS:     170217  HIT:     146991  MISS:      23226
LLC RFO       ACCESS:      85977  HIT:      15964  MISS:      70013
LLC PREFETCH  ACCESS:    1055942  HIT:     966846  MISS:      89096
LLC WRITEBACK ACCESS:     135801  HIT:     135435  MISS:        366
LLC PREFETCH  REQUESTED:          0  ISSUED:          0  USEFUL:      25357  USELESS:      70730
LLC AVERAGE MISS LATENCY: 167.29 cycles
LLC

SHEET
LLC-total_access : 1447937
LLC-total_hit : 1265236
LLC-total_miss : 182701
LLC-load_access : 170217
LLC-load_hit : 146991
LLC-load_miss : 23226
LLC-rfo_access : 85977
LLC-rfo_hit : 15964
LLC-rfo_miss : 70013
LLC-prefetch_access : 1055942
LLC-prefetch_hit : 966846
LLC-prefetch_miss : 89096
LLC-writeback_access : 135801
LLC-writeback_hit : 135435
LLC-writeback_miss : 366
LLC-prefetch_requested : 0
LLC-prefetch_issued : 0
LLC-prefetch_useful : 25357
LLC-prefetch_useless : 70730
LLC-Avg_miss_latency : 167.29
LLC-Morteza_fill_l2_prefetches : 820554

Major fault: 0 Minor fault: 5303



Printing Logs
statHeadFound: 2724326
statHeadMissing: 2043756
statStreamBufferHit: 9290761
statPrefetchEntryFound: 10006583
statCompactorMatch: 11921514
statStreamTrackerLookup: 14058843
statRecord: 2137329
statGetPointer: 4768082
statEnqueuePrefetch: 29279877
statPrefetchQueueIsFull: 1402
StreamBufferHitRate: 0.660848
Regions' size: 6951
next_region_correct: 1339587
next_region_wrong: 790783
next_region_correct_prediction: 0.628805
statStreamBufferLookups: 140588430
statL1iLookups: 234239016
statCompactorLookups: 224941488
morteza: start

SHEET
mana_table_access_counter : 12145306
hobp_table_access_counter : 37629657
sab_access_counter : 19297344
srq_access_counter : 14228861

morteza: end
CPU 0 L1D next line prefetcher final stats

DRAM Statistics
 CHANNEL 0
 RQ ROW_BUFFER_HIT:      51917  ROW_BUFFER_MISS:     130396
 DBUS_CONGESTED:      98579
 WQ ROW_BUFFER_HIT:      24214  ROW_BUFFER_MISS:      66252  FULL:          0

 AVG_CONGESTED_CYCLE: 6

CPU 0 Branch Prediction Accuracy: 98.6482% MPKI: 3.1551 Average ROB Occupancy at Mispredict: 94.3477

Branch types
NOT_BRANCH: 38329598 76.6592%
BRANCH_DIRECT_JUMP: 510116 1.02023%
BRANCH_INDIRECT: 225730 0.45146%
BRANCH_CONDITIONAL: 8366762 16.7335%
BRANCH_DIRECT_CALL: 600748 1.2015%
BRANCH_INDIRECT_CALL: 682990 1.36598%
BRANCH_RETURN: 1283974 2.56795%
BRANCH_OTHER: 0 0%

