Initialize SIGNATURE TABLE
ST_SET: 1
ST_WAY: 256
ST_TAG_BIT: 16
ST_TAG_MASK: ffff

Initialize PATTERN TABLE
PT_SET: 512
PT_WAY: 4
SIG_DELTA_BIT: 7
C_SIG_BIT: 4
C_DELTA_BIT: 4

Initialize PREFETCH FILTER
FILTER_SET: 1024
MANA initialize 
tds: 2 tdm: 2
size MANA SINGLE: 15.5 KB
size MANA NULTIPLE: 0 KB
size HOBPT: 0.703125 KB
size SRQ: 0.0644531 KB
size SABs: 0.0402832 KB
size prefetch queue: 0.453125 KB
total: 16.761 KB

*** ChampSim Multicore Out-of-Order Simulator ***

Warmup Instructions: 50000000
Simulation Instructions: 50000000
Number of CPUs: 1
LLC sets: 2048
LLC ways: 16
Off-chip DRAM Size: 4096 MB Channels: 1 Width: 64-bit Data Rate: 3200 MT/s

CPU 0 runs /home/mbaradaran/ChampSim/dpc3_traces/server_032.champsimtrace.xz
CPU 0 L1D next line prefetcher
Heartbeat CPU 0 instructions: 10000002 cycles: 3533587 heartbeat IPC: 2.82999 cumulative IPC: 2.82999 (Simulation time: 0 hr 1 min 29 sec) 
Heartbeat CPU 0 instructions: 20000003 cycles: 7068149 heartbeat IPC: 2.82921 cumulative IPC: 2.8296 (Simulation time: 0 hr 2 min 58 sec) 
Heartbeat CPU 0 instructions: 30000000 cycles: 10602728 heartbeat IPC: 2.82919 cumulative IPC: 2.82946 (Simulation time: 0 hr 4 min 28 sec) 
Heartbeat CPU 0 instructions: 40000003 cycles: 14139057 heartbeat IPC: 2.82779 cumulative IPC: 2.82904 (Simulation time: 0 hr 5 min 57 sec) 
Heartbeat CPU 0 instructions: 50000000 cycles: 17673468 heartbeat IPC: 2.82932 cumulative IPC: 2.8291 (Simulation time: 0 hr 7 min 21 sec) 

Warmup complete CPU 0 instructions: 50000004 cycles: 17673469 (Simulation time: 0 hr 7 min 21 sec) 

Heartbeat CPU 0 instructions: 60000002 cycles: 24922753 heartbeat IPC: 1.37945 cumulative IPC: 1.37945 (Simulation time: 0 hr 8 min 41 sec) 
Heartbeat CPU 0 instructions: 70000000 cycles: 32169134 heartbeat IPC: 1.38 cumulative IPC: 1.37972 (Simulation time: 0 hr 10 min 3 sec) 
*** Reached end of trace for Core: 0 Repeating trace: /home/mbaradaran/ChampSim/dpc3_traces/server_032.champsimtrace.xz
Heartbeat CPU 0 instructions: 80000003 cycles: 39412818 heartbeat IPC: 1.38051 cumulative IPC: 1.37999 (Simulation time: 0 hr 11 min 28 sec) 
Heartbeat CPU 0 instructions: 90000002 cycles: 46631479 heartbeat IPC: 1.3853 cumulative IPC: 1.38131 (Simulation time: 0 hr 12 min 54 sec) 
Heartbeat CPU 0 instructions: 100000001 cycles: 53859254 heartbeat IPC: 1.38355 cumulative IPC: 1.38176 (Simulation time: 0 hr 14 min 20 sec) 
Finished CPU 0 instructions: 50000002 cycles: 36185787 cumulative IPC: 1.38176 (Simulation time: 0 hr 14 min 20 sec) 

ChampSim completed all CPUs

Region of Interest Statistics

CPU 0 cumulative IPC: 1.38176 instructions: 50000002 cycles: 36185787

SHEET
IPC : 1.38176

L1D TOTAL     ACCESS:   20430988  HIT:   18601574  MISS:    1829414
L1D LOAD      ACCESS:    7063713  HIT:    6271424  MISS:     792289
L1D RFO       ACCESS:    6573745  HIT:    6279550  MISS:     294195
L1D PREFETCH  ACCESS:    6793530  HIT:    6050600  MISS:     742930
L1D WRITEBACK ACCESS:          0  HIT:          0  MISS:          0
L1D PREFETCH  REQUESTED:    7114549  ISSUED:    6990282  USEFUL:     172495  USELESS:     570434
L1D AVERAGE MISS LATENCY: 19.0601 cycles
L1D

SHEET
L1D-total_access : 20430988
L1D-total_hit : 18601574
L1D-total_miss : 1829414
L1D-load_access : 7063713
L1D-load_hit : 6271424
L1D-load_miss : 792289
L1D-rfo_access : 6573745
L1D-rfo_hit : 6279550
L1D-rfo_miss : 294195
L1D-prefetch_access : 6793530
L1D-prefetch_hit : 6050600
L1D-prefetch_miss : 742930
L1D-writeback_access : 0
L1D-writeback_hit : 0
L1D-writeback_miss : 0
L1D-prefetch_requested : 7114549
L1D-prefetch_issued : 6990282
L1D-prefetch_useful : 172495
L1D-prefetch_useless : 570434
L1D-Avg_miss_latency : 19.0601
L1D-Morteza_fill_l2_prefetches : 0

L1I TOTAL     ACCESS:   20262226  HIT:   15899666  MISS:    4362560
L1I LOAD      ACCESS:    9395520  HIT:    8228046  MISS:    1167474
L1I RFO       ACCESS:          0  HIT:          0  MISS:          0
L1I PREFETCH  ACCESS:   10866706  HIT:    7671620  MISS:    3195086
L1I WRITEBACK ACCESS:          0  HIT:          0  MISS:          0
L1I PREFETCH  REQUESTED:   12268910  ISSUED:   12259149  USEFUL:    2185219  USELESS:    1009869
L1I AVERAGE MISS LATENCY: 15.2404 cycles
L1I

SHEET
L1I-total_access : 20262226
L1I-total_hit : 15899666
L1I-total_miss : 4362560
L1I-load_access : 9395520
L1I-load_hit : 8228046
L1I-load_miss : 1167474
L1I-rfo_access : 0
L1I-rfo_hit : 0
L1I-rfo_miss : 0
L1I-prefetch_access : 10866706
L1I-prefetch_hit : 7671620
L1I-prefetch_miss : 3195086
L1I-writeback_access : 0
L1I-writeback_hit : 0
L1I-writeback_miss : 0
L1I-prefetch_requested : 12268910
L1I-prefetch_issued : 12259149
L1I-prefetch_useful : 2185219
L1I-prefetch_useless : 1009869
L1I-Avg_miss_latency : 15.2404
L1I-Morteza_fill_l2_prefetches : 0

L2C TOTAL     ACCESS:    8700999  HIT:    8167583  MISS:     533416
L2C LOAD      ACCESS:    1584912  HIT:    1450355  MISS:     134557
L2C RFO       ACCESS:     292705  HIT:     244904  MISS:      47801
L2C PREFETCH  ACCESS:    6187221  HIT:    5847221  MISS:     340000
L2C WRITEBACK ACCESS:     636161  HIT:     625103  MISS:      11058
L2C PREFETCH  REQUESTED:    7241344  ISSUED:    7201514  USEFUL:      15787  USELESS:     324060
L2C AVERAGE MISS LATENCY: 32.3759 cycles
L2C

SHEET
L2C-total_access : 8700999
L2C-total_hit : 8167583
L2C-total_miss : 533416
L2C-load_access : 1584912
L2C-load_hit : 1450355
L2C-load_miss : 134557
L2C-rfo_access : 292705
L2C-rfo_hit : 244904
L2C-rfo_miss : 47801
L2C-prefetch_access : 6187221
L2C-prefetch_hit : 5847221
L2C-prefetch_miss : 340000
L2C-writeback_access : 636161
L2C-writeback_hit : 625103
L2C-writeback_miss : 11058
L2C-prefetch_requested : 7241344
L2C-prefetch_issued : 7201514
L2C-prefetch_useful : 15787
L2C-prefetch_useless : 324060
L2C-Avg_miss_latency : 32.3759
L2C-Morteza_fill_l2_prefetches : 1904650

LLC TOTAL     ACCESS:    3203884  HIT:    3198202  MISS:       5682
LLC LOAD      ACCESS:     134269  HIT:     133797  MISS:        472
LLC RFO       ACCESS:      47801  HIT:      47801  MISS:          0
LLC PREFETCH  ACCESS:    2930004  HIT:    2924812  MISS:       5192
LLC WRITEBACK ACCESS:      91810  HIT:      91792  MISS:         18
LLC PREFETCH  REQUESTED:          0  ISSUED:          0  USEFUL:        394  USELESS:       1727
LLC AVERAGE MISS LATENCY: 147.63 cycles
LLC

SHEET
LLC-total_access : 3203884
LLC-total_hit : 3198202
LLC-total_miss : 5682
LLC-load_access : 134269
LLC-load_hit : 133797
LLC-load_miss : 472
LLC-rfo_access : 47801
LLC-rfo_hit : 47801
LLC-rfo_miss : 0
LLC-prefetch_access : 2930004
LLC-prefetch_hit : 2924812
LLC-prefetch_miss : 5192
LLC-writeback_access : 91810
LLC-writeback_hit : 91792
LLC-writeback_miss : 18
LLC-prefetch_requested : 0
LLC-prefetch_issued : 0
LLC-prefetch_useful : 394
LLC-prefetch_useless : 1727
LLC-Avg_miss_latency : 147.63
LLC-Morteza_fill_l2_prefetches : 2596475

Major fault: 0 Minor fault: 1178



Printing Logs
statHeadFound: 2187932
statHeadMissing: 2332528
statStreamBufferHit: 9970796
statPrefetchEntryFound: 9022845
statCompactorMatch: 10844112
statStreamTrackerLookup: 14491256
statRecord: 3647144
statGetPointer: 4520460
statEnqueuePrefetch: 24426446
statPrefetchQueueIsFull: 737
StreamBufferHitRate: 0.688056
Regions' size: 1509
next_region_correct: 2525341
next_region_wrong: 1120286
next_region_correct_prediction: 0.692704
statStreamBufferLookups: 144912560
statL1iLookups: 195411568
statCompactorLookups: 231860096
morteza: start

SHEET
mana_table_access_counter : 12670718
hobp_table_access_counter : 41694031
sab_access_counter : 18993641
srq_access_counter : 17082208

morteza: end
CPU 0 L1D next line prefetcher final stats

DRAM Statistics
 CHANNEL 0
 RQ ROW_BUFFER_HIT:       1585  ROW_BUFFER_MISS:       4079
 DBUS_CONGESTED:        918
 WQ ROW_BUFFER_HIT:          1  ROW_BUFFER_MISS:         14  FULL:          0

 AVG_CONGESTED_CYCLE: 5

CPU 0 Branch Prediction Accuracy: 99.8762% MPKI: 0.2296 Average ROB Occupancy at Mispredict: 147.041

Branch types
NOT_BRANCH: 40725980 81.452%
BRANCH_DIRECT_JUMP: 508371 1.01674%
BRANCH_INDIRECT: 180051 0.360102%
BRANCH_CONDITIONAL: 5999633 11.9993%
BRANCH_DIRECT_CALL: 1086732 2.17346%
BRANCH_INDIRECT_CALL: 206109 0.412218%
BRANCH_RETURN: 1292831 2.58566%
BRANCH_OTHER: 0 0%

