Initialize SIGNATURE TABLE
ST_SET: 1
ST_WAY: 256
ST_TAG_BIT: 16
ST_TAG_MASK: ffff

Initialize PATTERN TABLE
PT_SET: 512
PT_WAY: 4
SIG_DELTA_BIT: 7
C_SIG_BIT: 4
C_DELTA_BIT: 4

Initialize PREFETCH FILTER
FILTER_SET: 1024
MANA initialize 
tds: 2 tdm: 2
size MANA SINGLE: 15.5 KB
size MANA NULTIPLE: 0 KB
size HOBPT: 0.703125 KB
size SRQ: 0.0644531 KB
size SABs: 0.0402832 KB
size prefetch queue: 0.453125 KB
total: 16.761 KB

*** ChampSim Multicore Out-of-Order Simulator ***

Warmup Instructions: 50000000
Simulation Instructions: 50000000
Number of CPUs: 1
LLC sets: 2048
LLC ways: 16
Off-chip DRAM Size: 4096 MB Channels: 1 Width: 64-bit Data Rate: 3200 MT/s

CPU 0 runs /home/mbaradaran/ChampSim/dpc3_traces/server_013.champsimtrace.xz
CPU 0 L1D next line prefetcher
Heartbeat CPU 0 instructions: 10000000 cycles: 3215240 heartbeat IPC: 3.11019 cumulative IPC: 3.11019 (Simulation time: 0 hr 1 min 12 sec) 
Heartbeat CPU 0 instructions: 20000001 cycles: 6419953 heartbeat IPC: 3.1204 cumulative IPC: 3.11529 (Simulation time: 0 hr 2 min 37 sec) 
Heartbeat CPU 0 instructions: 30000002 cycles: 9628497 heartbeat IPC: 3.11668 cumulative IPC: 3.11575 (Simulation time: 0 hr 4 min 1 sec) 
Heartbeat CPU 0 instructions: 40000002 cycles: 12832306 heartbeat IPC: 3.12128 cumulative IPC: 3.11713 (Simulation time: 0 hr 5 min 22 sec) 
Heartbeat CPU 0 instructions: 50000000 cycles: 16036473 heartbeat IPC: 3.12094 cumulative IPC: 3.11789 (Simulation time: 0 hr 6 min 40 sec) 

Warmup complete CPU 0 instructions: 50000004 cycles: 16036474 (Simulation time: 0 hr 6 min 40 sec) 

Heartbeat CPU 0 instructions: 60000002 cycles: 24312315 heartbeat IPC: 1.20834 cumulative IPC: 1.20834 (Simulation time: 0 hr 7 min 52 sec) 
Heartbeat CPU 0 instructions: 70000002 cycles: 32799820 heartbeat IPC: 1.1782 cumulative IPC: 1.19308 (Simulation time: 0 hr 9 min 4 sec) 
Heartbeat CPU 0 instructions: 80000003 cycles: 40704610 heartbeat IPC: 1.26506 cumulative IPC: 1.21614 (Simulation time: 0 hr 10 min 16 sec) 
Heartbeat CPU 0 instructions: 90000003 cycles: 48791017 heartbeat IPC: 1.23664 cumulative IPC: 1.2212 (Simulation time: 0 hr 11 min 30 sec) 
Heartbeat CPU 0 instructions: 100000003 cycles: 56877596 heartbeat IPC: 1.23662 cumulative IPC: 1.22426 (Simulation time: 0 hr 12 min 45 sec) 
Finished CPU 0 instructions: 50000003 cycles: 40841123 cumulative IPC: 1.22426 (Simulation time: 0 hr 12 min 45 sec) 

ChampSim completed all CPUs

Region of Interest Statistics

CPU 0 cumulative IPC: 1.22426 instructions: 50000003 cycles: 40841123

SHEET
IPC : 1.22426

L1D TOTAL     ACCESS:   17630789  HIT:   16563810  MISS:    1066979
L1D LOAD      ACCESS:    6461883  HIT:    5963705  MISS:     498178
L1D RFO       ACCESS:    4943872  HIT:    4863617  MISS:      80255
L1D PREFETCH  ACCESS:    6225034  HIT:    5736488  MISS:     488546
L1D WRITEBACK ACCESS:          0  HIT:          0  MISS:          0
L1D PREFETCH  REQUESTED:    6498438  ISSUED:    6401333  USEFUL:     136603  USELESS:     351950
L1D AVERAGE MISS LATENCY: 41.7794 cycles
L1D

SHEET
L1D-total_access : 17630789
L1D-total_hit : 16563810
L1D-total_miss : 1066979
L1D-load_access : 6461883
L1D-load_hit : 5963705
L1D-load_miss : 498178
L1D-rfo_access : 4943872
L1D-rfo_hit : 4863617
L1D-rfo_miss : 80255
L1D-prefetch_access : 6225034
L1D-prefetch_hit : 5736488
L1D-prefetch_miss : 488546
L1D-writeback_access : 0
L1D-writeback_hit : 0
L1D-writeback_miss : 0
L1D-prefetch_requested : 6498438
L1D-prefetch_issued : 6401333
L1D-prefetch_useful : 136603
L1D-prefetch_useless : 351950
L1D-Avg_miss_latency : 41.7794
L1D-Morteza_fill_l2_prefetches : 0

L1I TOTAL     ACCESS:   18839570  HIT:   16584329  MISS:    2255241
L1I LOAD      ACCESS:    8614585  HIT:    8093392  MISS:     521193
L1I RFO       ACCESS:          0  HIT:          0  MISS:          0
L1I PREFETCH  ACCESS:   10224985  HIT:    8490937  MISS:    1734048
L1I WRITEBACK ACCESS:          0  HIT:          0  MISS:          0
L1I PREFETCH  REQUESTED:   11346612  ISSUED:   11238412  USEFUL:    1077405  USELESS:     656601
L1I AVERAGE MISS LATENCY: 27.3727 cycles
L1I

SHEET
L1I-total_access : 18839570
L1I-total_hit : 16584329
L1I-total_miss : 2255241
L1I-load_access : 8614585
L1I-load_hit : 8093392
L1I-load_miss : 521193
L1I-rfo_access : 0
L1I-rfo_hit : 0
L1I-rfo_miss : 0
L1I-prefetch_access : 10224985
L1I-prefetch_hit : 8490937
L1I-prefetch_miss : 1734048
L1I-writeback_access : 0
L1I-writeback_hit : 0
L1I-writeback_miss : 0
L1I-prefetch_requested : 11346612
L1I-prefetch_issued : 11238412
L1I-prefetch_useful : 1077405
L1I-prefetch_useless : 656601
L1I-Avg_miss_latency : 27.3727
L1I-Morteza_fill_l2_prefetches : 0

L2C TOTAL     ACCESS:    4305398  HIT:    2945842  MISS:    1359556
L2C LOAD      ACCESS:     822398  HIT:     392813  MISS:     429585
L2C RFO       ACCESS:      78941  HIT:      30503  MISS:      48438
L2C PREFETCH  ACCESS:    3128233  HIT:    2248649  MISS:     879584
L2C WRITEBACK ACCESS:     275826  HIT:     273877  MISS:       1949
L2C PREFETCH  REQUESTED:    3932729  ISSUED:    3929368  USEFUL:      62740  USELESS:     816298
L2C AVERAGE MISS LATENCY: 45.7091 cycles
L2C

SHEET
L2C-total_access : 4305398
L2C-total_hit : 2945842
L2C-total_miss : 1359556
L2C-load_access : 822398
L2C-load_hit : 392813
L2C-load_miss : 429585
L2C-rfo_access : 78941
L2C-rfo_hit : 30503
L2C-rfo_miss : 48438
L2C-prefetch_access : 3128233
L2C-prefetch_hit : 2248649
L2C-prefetch_miss : 879584
L2C-writeback_access : 275826
L2C-writeback_hit : 273877
L2C-writeback_miss : 1949
L2C-prefetch_requested : 3932729
L2C-prefetch_issued : 3929368
L2C-prefetch_useful : 62740
L2C-prefetch_useless : 816298
L2C-Avg_miss_latency : 45.7091
L2C-Morteza_fill_l2_prefetches : 714950

LLC TOTAL     ACCESS:    2662672  HIT:    2497454  MISS:     165218
LLC LOAD      ACCESS:     427953  HIT:     399345  MISS:      28608
LLC RFO       ACCESS:      48427  HIT:      38320  MISS:      10107
LLC PREFETCH  ACCESS:    2011280  HIT:    1885018  MISS:     126262
LLC WRITEBACK ACCESS:     175012  HIT:     174771  MISS:        241
LLC PREFETCH  REQUESTED:          0  ISSUED:          0  USEFUL:      15252  USELESS:     109737
LLC AVERAGE MISS LATENCY: 170.623 cycles
LLC

SHEET
LLC-total_access : 2662672
LLC-total_hit : 2497454
LLC-total_miss : 165218
LLC-load_access : 427953
LLC-load_hit : 399345
LLC-load_miss : 28608
LLC-rfo_access : 48427
LLC-rfo_hit : 38320
LLC-rfo_miss : 10107
LLC-prefetch_access : 2011280
LLC-prefetch_hit : 1885018
LLC-prefetch_miss : 126262
LLC-writeback_access : 175012
LLC-writeback_hit : 174771
LLC-writeback_miss : 241
LLC-prefetch_requested : 0
LLC-prefetch_issued : 0
LLC-prefetch_useful : 15252
LLC-prefetch_useless : 109737
LLC-Avg_miss_latency : 170.623
LLC-Morteza_fill_l2_prefetches : 1121920

Major fault: 0 Minor fault: 6200



Printing Logs
statHeadFound: 1564413
statHeadMissing: 1473570
statStreamBufferHit: 9020614
statPrefetchEntryFound: 6715027
statCompactorMatch: 9748813
statStreamTrackerLookup: 12058597
statRecord: 2309784
statGetPointer: 3037983
statEnqueuePrefetch: 22474750
statPrefetchQueueIsFull: 5338
StreamBufferHitRate: 0.748065
Regions' size: 4282
next_region_correct: 1804557
next_region_wrong: 500937
next_region_correct_prediction: 0.78272
statStreamBufferLookups: 120585970
statL1iLookups: 179798000
statCompactorLookups: 192937552
morteza: start

SHEET
mana_table_access_counter : 9030141
hobp_table_access_counter : 28111488
sab_access_counter : 15735641
srq_access_counter : 13215604

morteza: end
CPU 0 L1D next line prefetcher final stats

DRAM Statistics
 CHANNEL 0
 RQ ROW_BUFFER_HIT:      26362  ROW_BUFFER_MISS:     138605
 DBUS_CONGESTED:      74441
 WQ ROW_BUFFER_HIT:      12089  ROW_BUFFER_MISS:      52096  FULL:          0

 AVG_CONGESTED_CYCLE: 5

CPU 0 Branch Prediction Accuracy: 99.4114% MPKI: 1.0933 Average ROB Occupancy at Mispredict: 99.8845

Branch types
NOT_BRANCH: 40713221 81.4264%
BRANCH_DIRECT_JUMP: 463701 0.927402%
BRANCH_INDIRECT: 146544 0.293088%
BRANCH_CONDITIONAL: 6981950 13.9639%
BRANCH_DIRECT_CALL: 665005 1.33001%
BRANCH_INDIRECT_CALL: 165152 0.330304%
BRANCH_RETURN: 864311 1.72862%
BRANCH_OTHER: 0 0%

