Initialize SIGNATURE TABLE
ST_SET: 1
ST_WAY: 256
ST_TAG_BIT: 16
ST_TAG_MASK: ffff

Initialize PATTERN TABLE
PT_SET: 512
PT_WAY: 4
SIG_DELTA_BIT: 7
C_SIG_BIT: 4
C_DELTA_BIT: 4

Initialize PREFETCH FILTER
FILTER_SET: 1024
MANA initialize 
tds: 2 tdm: 2
size MANA SINGLE: 15.5 KB
size MANA NULTIPLE: 0 KB
size HOBPT: 0.703125 KB
size SRQ: 0.0644531 KB
size SABs: 0.0402832 KB
size prefetch queue: 0.453125 KB
total: 16.761 KB

*** ChampSim Multicore Out-of-Order Simulator ***

Warmup Instructions: 50000000
Simulation Instructions: 50000000
Number of CPUs: 1
LLC sets: 2048
LLC ways: 16
Off-chip DRAM Size: 4096 MB Channels: 1 Width: 64-bit Data Rate: 3200 MT/s

CPU 0 runs /home/mbaradaran/ChampSim/dpc3_traces/server_019.champsimtrace.xz
CPU 0 L1D next line prefetcher
Heartbeat CPU 0 instructions: 10000002 cycles: 3623780 heartbeat IPC: 2.75955 cumulative IPC: 2.75955 (Simulation time: 0 hr 1 min 33 sec) 
Heartbeat CPU 0 instructions: 20000003 cycles: 7248648 heartbeat IPC: 2.75872 cumulative IPC: 2.75914 (Simulation time: 0 hr 3 min 4 sec) 
Heartbeat CPU 0 instructions: 30000002 cycles: 10872481 heartbeat IPC: 2.75951 cumulative IPC: 2.75926 (Simulation time: 0 hr 4 min 31 sec) 
Heartbeat CPU 0 instructions: 40000002 cycles: 14508241 heartbeat IPC: 2.75046 cumulative IPC: 2.75705 (Simulation time: 0 hr 6 min 5 sec) 
Heartbeat CPU 0 instructions: 50000001 cycles: 18132252 heartbeat IPC: 2.75937 cumulative IPC: 2.75752 (Simulation time: 0 hr 7 min 34 sec) 

Warmup complete CPU 0 instructions: 50000001 cycles: 18132252 (Simulation time: 0 hr 7 min 34 sec) 

Heartbeat CPU 0 instructions: 60000001 cycles: 37869987 heartbeat IPC: 0.506644 cumulative IPC: 0.506644 (Simulation time: 0 hr 9 min 40 sec) 
Heartbeat CPU 0 instructions: 70000002 cycles: 61383980 heartbeat IPC: 0.425279 cumulative IPC: 0.462409 (Simulation time: 0 hr 11 min 41 sec) 
Heartbeat CPU 0 instructions: 80000001 cycles: 81849794 heartbeat IPC: 0.48862 cumulative IPC: 0.470828 (Simulation time: 0 hr 13 min 52 sec) 
Heartbeat CPU 0 instructions: 90000002 cycles: 99297100 heartbeat IPC: 0.573154 cumulative IPC: 0.492824 (Simulation time: 0 hr 15 min 57 sec) 
Heartbeat CPU 0 instructions: 100000002 cycles: 116707410 heartbeat IPC: 0.574372 cumulative IPC: 0.507227 (Simulation time: 0 hr 18 min 12 sec) 
Finished CPU 0 instructions: 50000001 cycles: 98575158 cumulative IPC: 0.507227 (Simulation time: 0 hr 18 min 12 sec) 

ChampSim completed all CPUs

Region of Interest Statistics

CPU 0 cumulative IPC: 0.507227 instructions: 50000001 cycles: 98575158

SHEET
IPC : 0.507227

L1D TOTAL     ACCESS:   18374503  HIT:   16150831  MISS:    2223672
L1D LOAD      ACCESS:    7009144  HIT:    6258107  MISS:     751037
L1D RFO       ACCESS:    5512867  HIT:    4610652  MISS:     902215
L1D PREFETCH  ACCESS:    5852492  HIT:    5282072  MISS:     570420
L1D WRITEBACK ACCESS:          0  HIT:          0  MISS:          0
L1D PREFETCH  REQUESTED:    7048150  ISSUED:    6862385  USEFUL:     201180  USELESS:     369148
L1D AVERAGE MISS LATENCY: 185.292 cycles
L1D

SHEET
L1D-total_access : 18374503
L1D-total_hit : 16150831
L1D-total_miss : 2223672
L1D-load_access : 7009144
L1D-load_hit : 6258107
L1D-load_miss : 751037
L1D-rfo_access : 5512867
L1D-rfo_hit : 4610652
L1D-rfo_miss : 902215
L1D-prefetch_access : 5852492
L1D-prefetch_hit : 5282072
L1D-prefetch_miss : 570420
L1D-writeback_access : 0
L1D-writeback_hit : 0
L1D-writeback_miss : 0
L1D-prefetch_requested : 7048150
L1D-prefetch_issued : 6862385
L1D-prefetch_useful : 201180
L1D-prefetch_useless : 369148
L1D-Avg_miss_latency : 185.292
L1D-Morteza_fill_l2_prefetches : 0

L1I TOTAL     ACCESS:   17568549  HIT:   15320357  MISS:    2248192
L1I LOAD      ACCESS:    9785146  HIT:    9387161  MISS:     397985
L1I RFO       ACCESS:          0  HIT:          0  MISS:          0
L1I PREFETCH  ACCESS:    7783403  HIT:    5933196  MISS:    1850207
L1I WRITEBACK ACCESS:          0  HIT:          0  MISS:          0
L1I PREFETCH  REQUESTED:    8507043  ISSUED:    8495118  USEFUL:    1680923  USELESS:     169280
L1I AVERAGE MISS LATENCY: 17.1642 cycles
L1I

SHEET
L1I-total_access : 17568549
L1I-total_hit : 15320357
L1I-total_miss : 2248192
L1I-load_access : 9785146
L1I-load_hit : 9387161
L1I-load_miss : 397985
L1I-rfo_access : 0
L1I-rfo_hit : 0
L1I-rfo_miss : 0
L1I-prefetch_access : 7783403
L1I-prefetch_hit : 5933196
L1I-prefetch_miss : 1850207
L1I-writeback_access : 0
L1I-writeback_hit : 0
L1I-writeback_miss : 0
L1I-prefetch_requested : 8507043
L1I-prefetch_issued : 8495118
L1I-prefetch_useful : 1680923
L1I-prefetch_useless : 169280
L1I-Avg_miss_latency : 17.1642
L1I-Morteza_fill_l2_prefetches : 0

L2C TOTAL     ACCESS:    6682246  HIT:    4795799  MISS:    1886447
L2C LOAD      ACCESS:     745747  HIT:     403332  MISS:     342415
L2C RFO       ACCESS:     901556  HIT:      18250  MISS:     883306
L2C PREFETCH  ACCESS:    3860243  HIT:    3201733  MISS:     658510
L2C WRITEBACK ACCESS:    1174700  HIT:    1172484  MISS:       2216
L2C PREFETCH  REQUESTED:    3998320  ISSUED:    3995522  USEFUL:      26720  USELESS:     630418
L2C AVERAGE MISS LATENCY: 221.002 cycles
L2C

SHEET
L2C-total_access : 6682246
L2C-total_hit : 4795799
L2C-total_miss : 1886447
L2C-load_access : 745747
L2C-load_hit : 403332
L2C-load_miss : 342415
L2C-rfo_access : 901556
L2C-rfo_hit : 18250
L2C-rfo_miss : 883306
L2C-prefetch_access : 3860243
L2C-prefetch_hit : 3201733
L2C-prefetch_miss : 658510
L2C-writeback_access : 1174700
L2C-writeback_hit : 1172484
L2C-writeback_miss : 2216
L2C-prefetch_requested : 3998320
L2C-prefetch_issued : 3995522
L2C-prefetch_useful : 26720
L2C-prefetch_useless : 630418
L2C-Avg_miss_latency : 221.002
L2C-Morteza_fill_l2_prefetches : 1041443

LLC TOTAL     ACCESS:    4120372  HIT:    2526647  MISS:    1593725
LLC LOAD      ACCESS:     342338  HIT:     175103  MISS:     167235
LLC RFO       ACCESS:     883297  HIT:     115224  MISS:     768073
LLC PREFETCH  ACCESS:    1784392  HIT:    1128103  MISS:     656289
LLC WRITEBACK ACCESS:    1110345  HIT:    1108217  MISS:       2128
LLC PREFETCH  REQUESTED:          0  ISSUED:          0  USEFUL:      52370  USELESS:     603104
LLC AVERAGE MISS LATENCY: 275.547 cycles
LLC

SHEET
LLC-total_access : 4120372
LLC-total_hit : 2526647
LLC-total_miss : 1593725
LLC-load_access : 342338
LLC-load_hit : 175103
LLC-load_miss : 167235
LLC-rfo_access : 883297
LLC-rfo_hit : 115224
LLC-rfo_miss : 768073
LLC-prefetch_access : 1784392
LLC-prefetch_hit : 1128103
LLC-prefetch_miss : 656289
LLC-writeback_access : 1110345
LLC-writeback_hit : 1108217
LLC-writeback_miss : 2128
LLC-prefetch_requested : 0
LLC-prefetch_issued : 0
LLC-prefetch_useful : 52370
LLC-prefetch_useless : 603104
LLC-Avg_miss_latency : 275.547
LLC-Morteza_fill_l2_prefetches : 826310

Major fault: 0 Minor fault: 25691



Printing Logs
statHeadFound: 1243577
statHeadMissing: 2003773
statStreamBufferHit: 9985584
statPrefetchEntryFound: 5900519
statCompactorMatch: 10652686
statStreamTrackerLookup: 13232934
statRecord: 2580248
statGetPointer: 3247350
statEnqueuePrefetch: 17787493
statPrefetchQueueIsFull: 0
StreamBufferHitRate: 0.754601
Regions' size: 1495
next_region_correct: 2070121
next_region_wrong: 508624
next_region_correct_prediction: 0.802763
statStreamBufferLookups: 132329340
statL1iLookups: 142299944
statCompactorLookups: 211726944
morteza: start

SHEET
mana_table_access_counter : 8480759
hobp_table_access_counter : 29210912
sab_access_counter : 15886103
srq_access_counter : 15030597

morteza: end
CPU 0 L1D next line prefetcher final stats

DRAM Statistics
 CHANNEL 0
 RQ ROW_BUFFER_HIT:     394844  ROW_BUFFER_MISS:    1196472
 DBUS_CONGESTED:    1584410
 WQ ROW_BUFFER_HIT:     257196  ROW_BUFFER_MISS:     678039  FULL:          0

 AVG_CONGESTED_CYCLE: 6

CPU 0 Branch Prediction Accuracy: 99.2186% MPKI: 1.32192 Average ROB Occupancy at Mispredict: 177.031

Branch types
NOT_BRANCH: 41540785 83.0816%
BRANCH_DIRECT_JUMP: 462384 0.924768%
BRANCH_INDIRECT: 45460 0.09092%
BRANCH_CONDITIONAL: 6209281 12.4186%
BRANCH_DIRECT_CALL: 666241 1.33248%
BRANCH_INDIRECT_CALL: 204728 0.409456%
BRANCH_RETURN: 870978 1.74196%
BRANCH_OTHER: 0 0%

