Initialize SIGNATURE TABLE
ST_SET: 1
ST_WAY: 256
ST_TAG_BIT: 16
ST_TAG_MASK: ffff

Initialize PATTERN TABLE
PT_SET: 512
PT_WAY: 4
SIG_DELTA_BIT: 7
C_SIG_BIT: 4
C_DELTA_BIT: 4

Initialize PREFETCH FILTER
FILTER_SET: 1024
MANA initialize 
tds: 2 tdm: 2
size MANA SINGLE: 15.5 KB
size MANA NULTIPLE: 0 KB
size HOBPT: 0.703125 KB
size SRQ: 0.0644531 KB
size SABs: 0.0402832 KB
size prefetch queue: 0.453125 KB
total: 16.761 KB

*** ChampSim Multicore Out-of-Order Simulator ***

Warmup Instructions: 50000000
Simulation Instructions: 50000000
Number of CPUs: 1
LLC sets: 2048
LLC ways: 16
Off-chip DRAM Size: 4096 MB Channels: 1 Width: 64-bit Data Rate: 3200 MT/s

CPU 0 runs /home/mbaradaran/ChampSim/dpc3_traces/server_004.champsimtrace.xz
CPU 0 L1D next line prefetcher
Heartbeat CPU 0 instructions: 10000002 cycles: 3230345 heartbeat IPC: 3.09565 cumulative IPC: 3.09565 (Simulation time: 0 hr 1 min 27 sec) 
Heartbeat CPU 0 instructions: 20000002 cycles: 6566469 heartbeat IPC: 2.99749 cumulative IPC: 3.04578 (Simulation time: 0 hr 2 min 52 sec) 
Heartbeat CPU 0 instructions: 30000000 cycles: 11684063 heartbeat IPC: 1.95404 cumulative IPC: 2.5676 (Simulation time: 0 hr 4 min 41 sec) 
Heartbeat CPU 0 instructions: 40000003 cycles: 15433036 heartbeat IPC: 2.6674 cumulative IPC: 2.59184 (Simulation time: 0 hr 6 min 10 sec) 
Heartbeat CPU 0 instructions: 50000003 cycles: 18662871 heartbeat IPC: 3.09613 cumulative IPC: 2.67912 (Simulation time: 0 hr 7 min 32 sec) 

Warmup complete CPU 0 instructions: 50000003 cycles: 18662871 (Simulation time: 0 hr 7 min 32 sec) 

Heartbeat CPU 0 instructions: 60000002 cycles: 28098870 heartbeat IPC: 1.05977 cumulative IPC: 1.05977 (Simulation time: 0 hr 8 min 46 sec) 
Heartbeat CPU 0 instructions: 70000000 cycles: 37017436 heartbeat IPC: 1.12126 cumulative IPC: 1.08965 (Simulation time: 0 hr 10 min 7 sec) 
Heartbeat CPU 0 instructions: 80000001 cycles: 58227445 heartbeat IPC: 0.471476 cumulative IPC: 0.758254 (Simulation time: 0 hr 12 min 18 sec) 
Heartbeat CPU 0 instructions: 90000003 cycles: 73749101 heartbeat IPC: 0.644261 cumulative IPC: 0.726134 (Simulation time: 0 hr 13 min 49 sec) 
Heartbeat CPU 0 instructions: 100000003 cycles: 83342984 heartbeat IPC: 1.04233 cumulative IPC: 0.773035 (Simulation time: 0 hr 15 min 0 sec) 
Finished CPU 0 instructions: 50000000 cycles: 64680113 cumulative IPC: 0.773035 (Simulation time: 0 hr 15 min 0 sec) 

ChampSim completed all CPUs

Region of Interest Statistics

CPU 0 cumulative IPC: 0.773035 instructions: 50000000 cycles: 64680113

SHEET
IPC : 0.773035

L1D TOTAL     ACCESS:   21869148  HIT:   17797698  MISS:    4071450
L1D LOAD      ACCESS:    8711090  HIT:    6694766  MISS:    2016324
L1D RFO       ACCESS:    4653075  HIT:    4546146  MISS:     106929
L1D PREFETCH  ACCESS:    8504983  HIT:    6556786  MISS:    1948197
L1D WRITEBACK ACCESS:          0  HIT:          0  MISS:          0
L1D PREFETCH  REQUESTED:    8747644  ISSUED:    8657496  USEFUL:     108396  USELESS:    1839792
L1D AVERAGE MISS LATENCY: 22.719 cycles
L1D

SHEET
L1D-total_access : 21869148
L1D-total_hit : 17797698
L1D-total_miss : 4071450
L1D-load_access : 8711090
L1D-load_hit : 6694766
L1D-load_miss : 2016324
L1D-rfo_access : 4653075
L1D-rfo_hit : 4546146
L1D-rfo_miss : 106929
L1D-prefetch_access : 8504983
L1D-prefetch_hit : 6556786
L1D-prefetch_miss : 1948197
L1D-writeback_access : 0
L1D-writeback_hit : 0
L1D-writeback_miss : 0
L1D-prefetch_requested : 8747644
L1D-prefetch_issued : 8657496
L1D-prefetch_useful : 108396
L1D-prefetch_useless : 1839792
L1D-Avg_miss_latency : 22.719
L1D-Morteza_fill_l2_prefetches : 0

L1I TOTAL     ACCESS:   23350751  HIT:   21674299  MISS:    1676452
L1I LOAD      ACCESS:   10661650  HIT:   10220273  MISS:     441377
L1I RFO       ACCESS:          0  HIT:          0  MISS:          0
L1I PREFETCH  ACCESS:   12689101  HIT:   11454026  MISS:    1235075
L1I WRITEBACK ACCESS:          0  HIT:          0  MISS:          0
L1I PREFETCH  REQUESTED:   14064869  ISSUED:   13994609  USEFUL:     761169  USELESS:     473850
L1I AVERAGE MISS LATENCY: 29.3269 cycles
L1I

SHEET
L1I-total_access : 23350751
L1I-total_hit : 21674299
L1I-total_miss : 1676452
L1I-load_access : 10661650
L1I-load_hit : 10220273
L1I-load_miss : 441377
L1I-rfo_access : 0
L1I-rfo_hit : 0
L1I-rfo_miss : 0
L1I-prefetch_access : 12689101
L1I-prefetch_hit : 11454026
L1I-prefetch_miss : 1235075
L1I-writeback_access : 0
L1I-writeback_hit : 0
L1I-writeback_miss : 0
L1I-prefetch_requested : 14064869
L1I-prefetch_issued : 13994609
L1I-prefetch_useful : 761169
L1I-prefetch_useless : 473850
L1I-Avg_miss_latency : 29.3269
L1I-Morteza_fill_l2_prefetches : 0

L2C TOTAL     ACCESS:    7294698  HIT:    6247082  MISS:    1047616
L2C LOAD      ACCESS:    2307873  HIT:    1935311  MISS:     372562
L2C RFO       ACCESS:     105652  HIT:      56677  MISS:      48975
L2C PREFETCH  ACCESS:    4636135  HIT:    4011501  MISS:     624634
L2C WRITEBACK ACCESS:     245038  HIT:     243593  MISS:       1445
L2C PREFETCH  REQUESTED:    6774941  ISSUED:    6773308  USEFUL:      47694  USELESS:     576198
L2C AVERAGE MISS LATENCY: 54.8998 cycles
L2C

SHEET
L2C-total_access : 7294698
L2C-total_hit : 6247082
L2C-total_miss : 1047616
L2C-load_access : 2307873
L2C-load_hit : 1935311
L2C-load_miss : 372562
L2C-rfo_access : 105652
L2C-rfo_hit : 56677
L2C-rfo_miss : 48975
L2C-prefetch_access : 4636135
L2C-prefetch_hit : 4011501
L2C-prefetch_miss : 624634
L2C-writeback_access : 245038
L2C-writeback_hit : 243593
L2C-writeback_miss : 1445
L2C-prefetch_requested : 6774941
L2C-prefetch_issued : 6773308
L2C-prefetch_useful : 47694
L2C-prefetch_useless : 576198
L2C-Avg_miss_latency : 54.8998
L2C-Morteza_fill_l2_prefetches : 1304052

LLC TOTAL     ACCESS:    2511756  HIT:    2285987  MISS:     225769
LLC LOAD      ACCESS:     370378  HIT:     316601  MISS:      53777
LLC RFO       ACCESS:      48973  HIT:      33587  MISS:      15386
LLC PREFETCH  ACCESS:    1951246  HIT:    1794940  MISS:     156306
LLC WRITEBACK ACCESS:     141159  HIT:     140859  MISS:        300
LLC PREFETCH  REQUESTED:          0  ISSUED:          0  USEFUL:      26547  USELESS:     129512
LLC AVERAGE MISS LATENCY: 168.141 cycles
LLC

SHEET
LLC-total_access : 2511756
LLC-total_hit : 2285987
LLC-total_miss : 225769
LLC-load_access : 370378
LLC-load_hit : 316601
LLC-load_miss : 53777
LLC-rfo_access : 48973
LLC-rfo_hit : 33587
LLC-rfo_miss : 15386
LLC-prefetch_access : 1951246
LLC-prefetch_hit : 1794940
LLC-prefetch_miss : 156306
LLC-writeback_access : 141159
LLC-writeback_hit : 140859
LLC-writeback_miss : 300
LLC-prefetch_requested : 0
LLC-prefetch_issued : 0
LLC-prefetch_useful : 26547
LLC-prefetch_useless : 129512
LLC-Avg_miss_latency : 168.141
LLC-Morteza_fill_l2_prefetches : 1268764

Major fault: 0 Minor fault: 7592



Printing Logs
statHeadFound: 2539417
statHeadMissing: 1761804
statStreamBufferHit: 11041891
statPrefetchEntryFound: 9660205
statCompactorMatch: 12915438
statStreamTrackerLookup: 15343112
statRecord: 2427674
statGetPointer: 4301221
statEnqueuePrefetch: 27850427
statPrefetchQueueIsFull: 6407
StreamBufferHitRate: 0.719664
Regions' size: 9488
next_region_correct: 1812043
next_region_wrong: 606135
next_region_correct_prediction: 0.749342
statStreamBufferLookups: 153431120
statL1iLookups: 222803416
statCompactorLookups: 245489792
morteza: start

SHEET
mana_table_access_counter : 12094278
hobp_table_access_counter : 36582247
sab_access_counter : 20702096
srq_access_counter : 14692558

morteza: end
CPU 0 L1D next line prefetcher final stats

DRAM Statistics
 CHANNEL 0
 RQ ROW_BUFFER_HIT:      46271  ROW_BUFFER_MISS:     179181
 DBUS_CONGESTED:      92197
 WQ ROW_BUFFER_HIT:      11530  ROW_BUFFER_MISS:      43235  FULL:          0

 AVG_CONGESTED_CYCLE: 5

CPU 0 Branch Prediction Accuracy: 98.1603% MPKI: 3.89124 Average ROB Occupancy at Mispredict: 58.287

Branch types
NOT_BRANCH: 39423760 78.8475%
BRANCH_DIRECT_JUMP: 551642 1.10328%
BRANCH_INDIRECT: 139368 0.278736%
BRANCH_CONDITIONAL: 7920859 15.8417%
BRANCH_DIRECT_CALL: 776072 1.55214%
BRANCH_INDIRECT_CALL: 194644 0.389288%
BRANCH_RETURN: 993311 1.98662%
BRANCH_OTHER: 0 0%

