Initialize SIGNATURE TABLE
ST_SET: 1
ST_WAY: 256
ST_TAG_BIT: 16
ST_TAG_MASK: ffff

Initialize PATTERN TABLE
PT_SET: 512
PT_WAY: 4
SIG_DELTA_BIT: 7
C_SIG_BIT: 4
C_DELTA_BIT: 4

Initialize PREFETCH FILTER
FILTER_SET: 1024
MANA initialize 
tds: 2 tdm: 2
size MANA SINGLE: 15.5 KB
size MANA NULTIPLE: 0 KB
size HOBPT: 0.703125 KB
size SRQ: 0.0644531 KB
size SABs: 0.0402832 KB
size prefetch queue: 0.453125 KB
total: 16.761 KB

*** ChampSim Multicore Out-of-Order Simulator ***

Warmup Instructions: 50000000
Simulation Instructions: 50000000
Number of CPUs: 1
LLC sets: 2048
LLC ways: 16
Off-chip DRAM Size: 4096 MB Channels: 1 Width: 64-bit Data Rate: 3200 MT/s

CPU 0 runs /home/mbaradaran/ChampSim/dpc3_traces/server_023.champsimtrace.xz
CPU 0 L1D next line prefetcher
Heartbeat CPU 0 instructions: 10000000 cycles: 3502453 heartbeat IPC: 2.85514 cumulative IPC: 2.85514 (Simulation time: 0 hr 1 min 28 sec) 
Heartbeat CPU 0 instructions: 20000000 cycles: 7004153 heartbeat IPC: 2.85576 cumulative IPC: 2.85545 (Simulation time: 0 hr 2 min 52 sec) 
Heartbeat CPU 0 instructions: 30000001 cycles: 10499312 heartbeat IPC: 2.8611 cumulative IPC: 2.85733 (Simulation time: 0 hr 4 min 13 sec) 
Heartbeat CPU 0 instructions: 40000003 cycles: 14000441 heartbeat IPC: 2.85622 cumulative IPC: 2.85705 (Simulation time: 0 hr 5 min 40 sec) 
Heartbeat CPU 0 instructions: 50000001 cycles: 17503527 heartbeat IPC: 2.85463 cumulative IPC: 2.85657 (Simulation time: 0 hr 7 min 12 sec) 

Warmup complete CPU 0 instructions: 50000001 cycles: 17503527 (Simulation time: 0 hr 7 min 12 sec) 

Heartbeat CPU 0 instructions: 60000002 cycles: 24805227 heartbeat IPC: 1.36954 cumulative IPC: 1.36954 (Simulation time: 0 hr 8 min 37 sec) 
Heartbeat CPU 0 instructions: 70000002 cycles: 32331353 heartbeat IPC: 1.3287 cumulative IPC: 1.34882 (Simulation time: 0 hr 9 min 55 sec) 
Heartbeat CPU 0 instructions: 80000000 cycles: 39725167 heartbeat IPC: 1.35248 cumulative IPC: 1.35004 (Simulation time: 0 hr 11 min 9 sec) 
Heartbeat CPU 0 instructions: 90000000 cycles: 47097297 heartbeat IPC: 1.35646 cumulative IPC: 1.35164 (Simulation time: 0 hr 12 min 19 sec) 
Heartbeat CPU 0 instructions: 100000001 cycles: 54493400 heartbeat IPC: 1.35206 cumulative IPC: 1.35172 (Simulation time: 0 hr 13 min 36 sec) 
Finished CPU 0 instructions: 50000000 cycles: 36989873 cumulative IPC: 1.35172 (Simulation time: 0 hr 13 min 36 sec) 

ChampSim completed all CPUs

Region of Interest Statistics

CPU 0 cumulative IPC: 1.35172 instructions: 50000000 cycles: 36989873

SHEET
IPC : 1.35172

L1D TOTAL     ACCESS:   19948484  HIT:   18481171  MISS:    1467313
L1D LOAD      ACCESS:    7134049  HIT:    6474752  MISS:     659297
L1D RFO       ACCESS:    5997612  HIT:    5736342  MISS:     261270
L1D PREFETCH  ACCESS:    6816823  HIT:    6270077  MISS:     546746
L1D WRITEBACK ACCESS:          0  HIT:          0  MISS:          0
L1D PREFETCH  REQUESTED:    7185628  ISSUED:    7068803  USEFUL:     131878  USELESS:     414877
L1D AVERAGE MISS LATENCY: 24.0701 cycles
L1D

SHEET
L1D-total_access : 19948484
L1D-total_hit : 18481171
L1D-total_miss : 1467313
L1D-load_access : 7134049
L1D-load_hit : 6474752
L1D-load_miss : 659297
L1D-rfo_access : 5997612
L1D-rfo_hit : 5736342
L1D-rfo_miss : 261270
L1D-prefetch_access : 6816823
L1D-prefetch_hit : 6270077
L1D-prefetch_miss : 546746
L1D-writeback_access : 0
L1D-writeback_hit : 0
L1D-writeback_miss : 0
L1D-prefetch_requested : 7185628
L1D-prefetch_issued : 7068803
L1D-prefetch_useful : 131878
L1D-prefetch_useless : 414877
L1D-Avg_miss_latency : 24.0701
L1D-Morteza_fill_l2_prefetches : 0

L1I TOTAL     ACCESS:   19110094  HIT:   15548815  MISS:    3561279
L1I LOAD      ACCESS:    9233635  HIT:    8331965  MISS:     901670
L1I RFO       ACCESS:          0  HIT:          0  MISS:          0
L1I PREFETCH  ACCESS:    9876459  HIT:    7216850  MISS:    2659609
L1I WRITEBACK ACCESS:          0  HIT:          0  MISS:          0
L1I PREFETCH  REQUESTED:   11186001  ISSUED:   11151578  USEFUL:    1684025  USELESS:     975561
L1I AVERAGE MISS LATENCY: 16.1522 cycles
L1I

SHEET
L1I-total_access : 19110094
L1I-total_hit : 15548815
L1I-total_miss : 3561279
L1I-load_access : 9233635
L1I-load_hit : 8331965
L1I-load_miss : 901670
L1I-rfo_access : 0
L1I-rfo_hit : 0
L1I-rfo_miss : 0
L1I-prefetch_access : 9876459
L1I-prefetch_hit : 7216850
L1I-prefetch_miss : 2659609
L1I-writeback_access : 0
L1I-writeback_hit : 0
L1I-writeback_miss : 0
L1I-prefetch_requested : 11186001
L1I-prefetch_issued : 11151578
L1I-prefetch_useful : 1684025
L1I-prefetch_useless : 975561
L1I-Avg_miss_latency : 16.1522
L1I-Morteza_fill_l2_prefetches : 0

L2C TOTAL     ACCESS:    6894751  HIT:    6258806  MISS:     635945
L2C LOAD      ACCESS:    1227359  HIT:    1047356  MISS:     180003
L2C RFO       ACCESS:     259387  HIT:     170145  MISS:      89242
L2C PREFETCH  ACCESS:    4908764  HIT:    4544316  MISS:     364448
L2C WRITEBACK ACCESS:     499241  HIT:     496989  MISS:       2252
L2C PREFETCH  REQUESTED:    5382793  ISSUED:    5377155  USEFUL:      35877  USELESS:     327888
L2C AVERAGE MISS LATENCY: 42.6661 cycles
L2C

SHEET
L2C-total_access : 6894751
L2C-total_hit : 6258806
L2C-total_miss : 635945
L2C-load_access : 1227359
L2C-load_hit : 1047356
L2C-load_miss : 180003
L2C-rfo_access : 259387
L2C-rfo_hit : 170145
L2C-rfo_miss : 89242
L2C-prefetch_access : 4908764
L2C-prefetch_hit : 4544316
L2C-prefetch_miss : 364448
L2C-writeback_access : 499241
L2C-writeback_hit : 496989
L2C-writeback_miss : 2252
L2C-prefetch_requested : 5382793
L2C-prefetch_issued : 5377155
L2C-prefetch_useful : 35877
L2C-prefetch_useless : 327888
L2C-Avg_miss_latency : 42.6661
L2C-Morteza_fill_l2_prefetches : 1402586

LLC TOTAL     ACCESS:    2168626  HIT:    2119183  MISS:      49443
LLC LOAD      ACCESS:     179838  HIT:     173285  MISS:       6553
LLC RFO       ACCESS:      89242  HIT:      71537  MISS:      17705
LLC PREFETCH  ACCESS:    1761609  HIT:    1736690  MISS:      24919
LLC WRITEBACK ACCESS:     137937  HIT:     137671  MISS:        266
LLC PREFETCH  REQUESTED:          0  ISSUED:          0  USEFUL:       2760  USELESS:      21929
LLC AVERAGE MISS LATENCY: 181.655 cycles
LLC

SHEET
LLC-total_access : 2168626
LLC-total_hit : 2119183
LLC-total_miss : 49443
LLC-load_access : 179838
LLC-load_hit : 173285
LLC-load_miss : 6553
LLC-rfo_access : 89242
LLC-rfo_hit : 71537
LLC-rfo_miss : 17705
LLC-prefetch_access : 1761609
LLC-prefetch_hit : 1736690
LLC-prefetch_miss : 24919
LLC-writeback_access : 137937
LLC-writeback_hit : 137671
LLC-writeback_miss : 266
LLC-prefetch_requested : 0
LLC-prefetch_issued : 0
LLC-prefetch_useful : 2760
LLC-prefetch_useless : 21929
LLC-Avg_miss_latency : 181.655
LLC-Morteza_fill_l2_prefetches : 1398931

Major fault: 0 Minor fault: 2766



Printing Logs
statHeadFound: 2028385
statHeadMissing: 2096554
statStreamBufferHit: 10049493
statPrefetchEntryFound: 8193103
statCompactorMatch: 11187166
statStreamTrackerLookup: 14174432
statRecord: 2987266
statGetPointer: 4124939
statEnqueuePrefetch: 22252489
statPrefetchQueueIsFull: 504
StreamBufferHitRate: 0.708987
Regions' size: 3042
next_region_correct: 1984834
next_region_wrong: 999382
next_region_correct_prediction: 0.665111
statStreamBufferLookups: 141744320
statL1iLookups: 178019912
statCompactorLookups: 226790912
morteza: start

SHEET
mana_table_access_counter : 11180865
hobp_table_access_counter : 36642467
sab_access_counter : 18242596
srq_access_counter : 16085968

morteza: end
CPU 0 L1D next line prefetcher final stats

DRAM Statistics
 CHANNEL 0
 RQ ROW_BUFFER_HIT:      14955  ROW_BUFFER_MISS:      34208
 DBUS_CONGESTED:      32119
 WQ ROW_BUFFER_HIT:       2603  ROW_BUFFER_MISS:      19047  FULL:          0

 AVG_CONGESTED_CYCLE: 6

CPU 0 Branch Prediction Accuracy: 99.6798% MPKI: 0.58608 Average ROB Occupancy at Mispredict: 115.568

Branch types
NOT_BRANCH: 40848158 81.6963%
BRANCH_DIRECT_JUMP: 548368 1.09674%
BRANCH_INDIRECT: 189802 0.379604%
BRANCH_CONDITIONAL: 6372737 12.7455%
BRANCH_DIRECT_CALL: 862206 1.72441%
BRANCH_INDIRECT_CALL: 158147 0.316294%
BRANCH_RETURN: 1020342 2.04068%
BRANCH_OTHER: 0 0%

