Initialize SIGNATURE TABLE
ST_SET: 1
ST_WAY: 256
ST_TAG_BIT: 16
ST_TAG_MASK: ffff

Initialize PATTERN TABLE
PT_SET: 512
PT_WAY: 4
SIG_DELTA_BIT: 7
C_SIG_BIT: 4
C_DELTA_BIT: 4

Initialize PREFETCH FILTER
FILTER_SET: 1024
MANA initialize 
tds: 2 tdm: 2
size MANA SINGLE: 15.5 KB
size MANA NULTIPLE: 0 KB
size HOBPT: 0.703125 KB
size SRQ: 0.0644531 KB
size SABs: 0.0402832 KB
size prefetch queue: 0.453125 KB
total: 16.761 KB

*** ChampSim Multicore Out-of-Order Simulator ***

Warmup Instructions: 50000000
Simulation Instructions: 50000000
Number of CPUs: 1
LLC sets: 2048
LLC ways: 16
Off-chip DRAM Size: 4096 MB Channels: 1 Width: 64-bit Data Rate: 3200 MT/s

CPU 0 runs /home/mbaradaran/ChampSim/dpc3_traces/server_014.champsimtrace.xz
CPU 0 L1D next line prefetcher
Heartbeat CPU 0 instructions: 10000003 cycles: 3519535 heartbeat IPC: 2.84129 cumulative IPC: 2.84129 (Simulation time: 0 hr 1 min 20 sec) 
Heartbeat CPU 0 instructions: 20000000 cycles: 7106407 heartbeat IPC: 2.78794 cumulative IPC: 2.81436 (Simulation time: 0 hr 2 min 41 sec) 
Heartbeat CPU 0 instructions: 30000001 cycles: 10647958 heartbeat IPC: 2.82362 cumulative IPC: 2.81744 (Simulation time: 0 hr 4 min 2 sec) 
Heartbeat CPU 0 instructions: 40000003 cycles: 14196181 heartbeat IPC: 2.81831 cumulative IPC: 2.81766 (Simulation time: 0 hr 5 min 25 sec) 
Heartbeat CPU 0 instructions: 50000000 cycles: 17744857 heartbeat IPC: 2.81795 cumulative IPC: 2.81772 (Simulation time: 0 hr 6 min 47 sec) 

Warmup complete CPU 0 instructions: 50000001 cycles: 17744858 (Simulation time: 0 hr 6 min 47 sec) 

Heartbeat CPU 0 instructions: 60000000 cycles: 24334820 heartbeat IPC: 1.51746 cumulative IPC: 1.51746 (Simulation time: 0 hr 7 min 56 sec) 
Heartbeat CPU 0 instructions: 70000003 cycles: 30921023 heartbeat IPC: 1.51833 cumulative IPC: 1.51789 (Simulation time: 0 hr 9 min 6 sec) 
*** Reached end of trace for Core: 0 Repeating trace: /home/mbaradaran/ChampSim/dpc3_traces/server_014.champsimtrace.xz
Heartbeat CPU 0 instructions: 80000001 cycles: 37800380 heartbeat IPC: 1.45362 cumulative IPC: 1.49585 (Simulation time: 0 hr 10 min 16 sec) 
Heartbeat CPU 0 instructions: 90000003 cycles: 45674208 heartbeat IPC: 1.27003 cumulative IPC: 1.43219 (Simulation time: 0 hr 11 min 27 sec) 
Heartbeat CPU 0 instructions: 100000003 cycles: 52453444 heartbeat IPC: 1.47509 cumulative IPC: 1.44057 (Simulation time: 0 hr 12 min 34 sec) 
Finished CPU 0 instructions: 50000002 cycles: 34708586 cumulative IPC: 1.44057 (Simulation time: 0 hr 12 min 34 sec) 

ChampSim completed all CPUs

Region of Interest Statistics

CPU 0 cumulative IPC: 1.44057 instructions: 50000002 cycles: 34708586

SHEET
IPC : 1.44057

L1D TOTAL     ACCESS:   22203175  HIT:   22132306  MISS:      70869
L1D LOAD      ACCESS:    6955424  HIT:    6928508  MISS:      26916
L1D RFO       ACCESS:    8416969  HIT:    8384892  MISS:      32077
L1D PREFETCH  ACCESS:    6830782  HIT:    6818906  MISS:      11876
L1D WRITEBACK ACCESS:          0  HIT:          0  MISS:          0
L1D PREFETCH  REQUESTED:    6959990  ISSUED:    6860510  USEFUL:       3320  USELESS:       8556
L1D AVERAGE MISS LATENCY: 229.309 cycles
L1D

SHEET
L1D-total_access : 22203175
L1D-total_hit : 22132306
L1D-total_miss : 70869
L1D-load_access : 6955424
L1D-load_hit : 6928508
L1D-load_miss : 26916
L1D-rfo_access : 8416969
L1D-rfo_hit : 8384892
L1D-rfo_miss : 32077
L1D-prefetch_access : 6830782
L1D-prefetch_hit : 6818906
L1D-prefetch_miss : 11876
L1D-writeback_access : 0
L1D-writeback_hit : 0
L1D-writeback_miss : 0
L1D-prefetch_requested : 6959990
L1D-prefetch_issued : 6860510
L1D-prefetch_useful : 3320
L1D-prefetch_useless : 8556
L1D-Avg_miss_latency : 229.309
L1D-Morteza_fill_l2_prefetches : 0

L1I TOTAL     ACCESS:   21018239  HIT:   18380313  MISS:    2637926
L1I LOAD      ACCESS:    9513143  HIT:    8866210  MISS:     646933
L1I RFO       ACCESS:          0  HIT:          0  MISS:          0
L1I PREFETCH  ACCESS:   11505096  HIT:    9514103  MISS:    1990993
L1I WRITEBACK ACCESS:          0  HIT:          0  MISS:          0
L1I PREFETCH  REQUESTED:   12664184  ISSUED:   12661357  USEFUL:    1593722  USELESS:     397280
L1I AVERAGE MISS LATENCY: 13.686 cycles
L1I

SHEET
L1I-total_access : 21018239
L1I-total_hit : 18380313
L1I-total_miss : 2637926
L1I-load_access : 9513143
L1I-load_hit : 8866210
L1I-load_miss : 646933
L1I-rfo_access : 0
L1I-rfo_hit : 0
L1I-rfo_miss : 0
L1I-prefetch_access : 11505096
L1I-prefetch_hit : 9514103
L1I-prefetch_miss : 1990993
L1I-writeback_access : 0
L1I-writeback_hit : 0
L1I-writeback_miss : 0
L1I-prefetch_requested : 12664184
L1I-prefetch_issued : 12661357
L1I-prefetch_useful : 1593722
L1I-prefetch_useless : 397280
L1I-Avg_miss_latency : 13.686
L1I-Morteza_fill_l2_prefetches : 0

L2C TOTAL     ACCESS:    3818051  HIT:    3745844  MISS:      72207
L2C LOAD      ACCESS:     428945  HIT:     408019  MISS:      20926
L2C RFO       ACCESS:      32021  HIT:       1100  MISS:      30921
L2C PREFETCH  ACCESS:    3318716  HIT:    3298374  MISS:      20342
L2C WRITEBACK ACCESS:      38369  HIT:      38351  MISS:         18
L2C PREFETCH  REQUESTED:    2669170  ISSUED:    2669112  USEFUL:       1651  USELESS:      18666
L2C AVERAGE MISS LATENCY: 255.647 cycles
L2C

SHEET
L2C-total_access : 3818051
L2C-total_hit : 3745844
L2C-total_miss : 72207
L2C-load_access : 428945
L2C-load_hit : 408019
L2C-load_miss : 20926
L2C-rfo_access : 32021
L2C-rfo_hit : 1100
L2C-rfo_miss : 30921
L2C-prefetch_access : 3318716
L2C-prefetch_hit : 3298374
L2C-prefetch_miss : 20342
L2C-writeback_access : 38369
L2C-writeback_hit : 38351
L2C-writeback_miss : 18
L2C-prefetch_requested : 2669170
L2C-prefetch_issued : 2669112
L2C-prefetch_useful : 1651
L2C-prefetch_useless : 18666
L2C-Avg_miss_latency : 255.647
L2C-Morteza_fill_l2_prefetches : 1077526

LLC TOTAL     ACCESS:     609393  HIT:     543907  MISS:      65486
LLC LOAD      ACCESS:      19812  HIT:       6004  MISS:      13808
LLC RFO       ACCESS:      30921  HIT:       4292  MISS:      26629
LLC PREFETCH  ACCESS:     523801  HIT:     498861  MISS:      24940
LLC WRITEBACK ACCESS:      34859  HIT:      34750  MISS:        109
LLC PREFETCH  REQUESTED:          0  ISSUED:          0  USEFUL:       4688  USELESS:      21567
LLC AVERAGE MISS LATENCY: 304.63 cycles
LLC

SHEET
LLC-total_access : 609393
LLC-total_hit : 543907
LLC-total_miss : 65486
LLC-load_access : 19812
LLC-load_hit : 6004
LLC-load_miss : 13808
LLC-rfo_access : 30921
LLC-rfo_hit : 4292
LLC-rfo_miss : 26629
LLC-prefetch_access : 523801
LLC-prefetch_hit : 498861
LLC-prefetch_miss : 24940
LLC-writeback_access : 34859
LLC-writeback_hit : 34750
LLC-writeback_miss : 109
LLC-prefetch_requested : 0
LLC-prefetch_issued : 0
LLC-prefetch_useful : 4688
LLC-prefetch_useless : 21567
LLC-Avg_miss_latency : 304.63
LLC-Morteza_fill_l2_prefetches : 491378

Major fault: 0 Minor fault: 1911



Printing Logs
statHeadFound: 2247236
statHeadMissing: 1689740
statStreamBufferHit: 10651211
statPrefetchEntryFound: 9330112
statCompactorMatch: 10969560
statStreamTrackerLookup: 14588187
statRecord: 3618627
statGetPointer: 3936976
statEnqueuePrefetch: 25348544
statPrefetchQueueIsFull: 0
StreamBufferHitRate: 0.730126
Regions' size: 2951
next_region_correct: 2534538
next_region_wrong: 1081130
next_region_correct_prediction: 0.700987
statStreamBufferLookups: 145881870
statL1iLookups: 202788352
statCompactorLookups: 233410992
morteza: start

SHEET
mana_table_access_counter : 12948731
hobp_table_access_counter : 39552525
sab_access_counter : 19981323
srq_access_counter : 17643464

morteza: end
CPU 0 L1D next line prefetcher final stats

DRAM Statistics
 CHANNEL 0
 RQ ROW_BUFFER_HIT:      28317  ROW_BUFFER_MISS:      37054
 DBUS_CONGESTED:      66970
 WQ ROW_BUFFER_HIT:       8662  ROW_BUFFER_MISS:      23840  FULL:          0

 AVG_CONGESTED_CYCLE: 6

CPU 0 Branch Prediction Accuracy: 99.7719% MPKI: 0.38824 Average ROB Occupancy at Mispredict: 107.708

Branch types
NOT_BRANCH: 41488825 82.9776%
BRANCH_DIRECT_JUMP: 449416 0.898832%
BRANCH_INDIRECT: 2330 0.00466%
BRANCH_CONDITIONAL: 5470005 10.94%
BRANCH_DIRECT_CALL: 1172177 2.34435%
BRANCH_INDIRECT_CALL: 122383 0.244766%
BRANCH_RETURN: 1294544 2.58909%
BRANCH_OTHER: 0 0%

