Initialize SIGNATURE TABLE
ST_SET: 1
ST_WAY: 256
ST_TAG_BIT: 16
ST_TAG_MASK: ffff

Initialize PATTERN TABLE
PT_SET: 512
PT_WAY: 4
SIG_DELTA_BIT: 7
C_SIG_BIT: 4
C_DELTA_BIT: 4

Initialize PREFETCH FILTER
FILTER_SET: 1024
MANA initialize 
tds: 2 tdm: 2
size MANA SINGLE: 15.5 KB
size MANA NULTIPLE: 0 KB
size HOBPT: 0.703125 KB
size SRQ: 0.0644531 KB
size SABs: 0.0402832 KB
size prefetch queue: 0.453125 KB
total: 16.761 KB

*** ChampSim Multicore Out-of-Order Simulator ***

Warmup Instructions: 50000000
Simulation Instructions: 50000000
Number of CPUs: 1
LLC sets: 2048
LLC ways: 16
Off-chip DRAM Size: 4096 MB Channels: 1 Width: 64-bit Data Rate: 3200 MT/s

CPU 0 runs /home/mbaradaran/ChampSim/dpc3_traces/server_028.champsimtrace.xz
CPU 0 L1D next line prefetcher
Heartbeat CPU 0 instructions: 10000001 cycles: 3503387 heartbeat IPC: 2.85438 cumulative IPC: 2.85438 (Simulation time: 0 hr 1 min 38 sec) 
Heartbeat CPU 0 instructions: 20000002 cycles: 7006332 heartbeat IPC: 2.85474 cumulative IPC: 2.85456 (Simulation time: 0 hr 3 min 11 sec) 
Heartbeat CPU 0 instructions: 30000001 cycles: 10506972 heartbeat IPC: 2.85662 cumulative IPC: 2.85525 (Simulation time: 0 hr 4 min 36 sec) 
Heartbeat CPU 0 instructions: 40000002 cycles: 14014239 heartbeat IPC: 2.85122 cumulative IPC: 2.85424 (Simulation time: 0 hr 6 min 0 sec) 
Heartbeat CPU 0 instructions: 50000001 cycles: 17517615 heartbeat IPC: 2.85439 cumulative IPC: 2.85427 (Simulation time: 0 hr 7 min 25 sec) 

Warmup complete CPU 0 instructions: 50000001 cycles: 17517615 (Simulation time: 0 hr 7 min 25 sec) 

Heartbeat CPU 0 instructions: 60000000 cycles: 25493655 heartbeat IPC: 1.25375 cumulative IPC: 1.25375 (Simulation time: 0 hr 8 min 45 sec) 
Heartbeat CPU 0 instructions: 70000000 cycles: 33437812 heartbeat IPC: 1.25879 cumulative IPC: 1.25627 (Simulation time: 0 hr 10 min 4 sec) 
Heartbeat CPU 0 instructions: 80000000 cycles: 41394566 heartbeat IPC: 1.25679 cumulative IPC: 1.25644 (Simulation time: 0 hr 11 min 21 sec) 
*** Reached end of trace for Core: 0 Repeating trace: /home/mbaradaran/ChampSim/dpc3_traces/server_028.champsimtrace.xz
Heartbeat CPU 0 instructions: 90000000 cycles: 49328603 heartbeat IPC: 1.26039 cumulative IPC: 1.25743 (Simulation time: 0 hr 12 min 37 sec) 
Heartbeat CPU 0 instructions: 100000003 cycles: 57244067 heartbeat IPC: 1.26335 cumulative IPC: 1.25861 (Simulation time: 0 hr 13 min 53 sec) 
Finished CPU 0 instructions: 50000002 cycles: 39726452 cumulative IPC: 1.25861 (Simulation time: 0 hr 13 min 53 sec) 

ChampSim completed all CPUs

Region of Interest Statistics

CPU 0 cumulative IPC: 1.25861 instructions: 50000002 cycles: 39726452

SHEET
IPC : 1.25861

L1D TOTAL     ACCESS:   19558253  HIT:   17483857  MISS:    2074396
L1D LOAD      ACCESS:    6965863  HIT:    5918838  MISS:    1047025
L1D RFO       ACCESS:    6125439  HIT:    5841861  MISS:     283578
L1D PREFETCH  ACCESS:    6466951  HIT:    5723158  MISS:     743793
L1D WRITEBACK ACCESS:          0  HIT:          0  MISS:          0
L1D PREFETCH  REQUESTED:    7025377  ISSUED:    6930411  USEFUL:     176949  USELESS:     566845
L1D AVERAGE MISS LATENCY: 21.1355 cycles
L1D

SHEET
L1D-total_access : 19558253
L1D-total_hit : 17483857
L1D-total_miss : 2074396
L1D-load_access : 6965863
L1D-load_hit : 5918838
L1D-load_miss : 1047025
L1D-rfo_access : 6125439
L1D-rfo_hit : 5841861
L1D-rfo_miss : 283578
L1D-prefetch_access : 6466951
L1D-prefetch_hit : 5723158
L1D-prefetch_miss : 743793
L1D-writeback_access : 0
L1D-writeback_hit : 0
L1D-writeback_miss : 0
L1D-prefetch_requested : 7025377
L1D-prefetch_issued : 6930411
L1D-prefetch_useful : 176949
L1D-prefetch_useless : 566845
L1D-Avg_miss_latency : 21.1355
L1D-Morteza_fill_l2_prefetches : 0

L1I TOTAL     ACCESS:   19784338  HIT:   15682650  MISS:    4101688
L1I LOAD      ACCESS:    9473224  HIT:    8403753  MISS:    1069471
L1I RFO       ACCESS:          0  HIT:          0  MISS:          0
L1I PREFETCH  ACCESS:   10311114  HIT:    7278897  MISS:    3032217
L1I WRITEBACK ACCESS:          0  HIT:          0  MISS:          0
L1I PREFETCH  REQUESTED:   11703809  ISSUED:   11686451  USEFUL:    2019285  USELESS:    1012935
L1I AVERAGE MISS LATENCY: 15.4525 cycles
L1I

SHEET
L1I-total_access : 19784338
L1I-total_hit : 15682650
L1I-total_miss : 4101688
L1I-load_access : 9473224
L1I-load_hit : 8403753
L1I-load_miss : 1069471
L1I-rfo_access : 0
L1I-rfo_hit : 0
L1I-rfo_miss : 0
L1I-prefetch_access : 10311114
L1I-prefetch_hit : 7278897
L1I-prefetch_miss : 3032217
L1I-writeback_access : 0
L1I-writeback_hit : 0
L1I-writeback_miss : 0
L1I-prefetch_requested : 11703809
L1I-prefetch_issued : 11686451
L1I-prefetch_useful : 2019285
L1I-prefetch_useless : 1012935
L1I-Avg_miss_latency : 15.4525
L1I-Morteza_fill_l2_prefetches : 0

L2C TOTAL     ACCESS:    8686565  HIT:    8059373  MISS:     627192
L2C LOAD      ACCESS:    1607517  HIT:    1413017  MISS:     194500
L2C RFO       ACCESS:     281672  HIT:     229509  MISS:      52163
L2C PREFETCH  ACCESS:    6192272  HIT:    5813598  MISS:     378674
L2C WRITEBACK ACCESS:     605104  HIT:     603249  MISS:       1855
L2C PREFETCH  REQUESTED:    7496306  ISSUED:    7469190  USEFUL:      17115  USELESS:     361028
L2C AVERAGE MISS LATENCY: 41.963 cycles
L2C

SHEET
L2C-total_access : 8686565
L2C-total_hit : 8059373
L2C-total_miss : 627192
L2C-load_access : 1607517
L2C-load_hit : 1413017
L2C-load_miss : 194500
L2C-rfo_access : 281672
L2C-rfo_hit : 229509
L2C-rfo_miss : 52163
L2C-prefetch_access : 6192272
L2C-prefetch_hit : 5813598
L2C-prefetch_miss : 378674
L2C-writeback_access : 605104
L2C-writeback_hit : 603249
L2C-writeback_miss : 1855
L2C-prefetch_requested : 7496306
L2C-prefetch_issued : 7469190
L2C-prefetch_useful : 17115
L2C-prefetch_useless : 361028
L2C-Avg_miss_latency : 41.963
L2C-Morteza_fill_l2_prefetches : 1985119

LLC TOTAL     ACCESS:    2848621  HIT:    2777431  MISS:      71190
LLC LOAD      ACCESS:     194284  HIT:     178121  MISS:      16163
LLC RFO       ACCESS:      52163  HIT:      50183  MISS:       1980
LLC PREFETCH  ACCESS:    2509322  HIT:    2456658  MISS:      52664
LLC WRITEBACK ACCESS:      92852  HIT:      92469  MISS:        383
LLC PREFETCH  REQUESTED:          0  ISSUED:          0  USEFUL:       2370  USELESS:      49732
LLC AVERAGE MISS LATENCY: 158.084 cycles
LLC

SHEET
LLC-total_access : 2848621
LLC-total_hit : 2777431
LLC-total_miss : 71190
LLC-load_access : 194284
LLC-load_hit : 178121
LLC-load_miss : 16163
LLC-rfo_access : 52163
LLC-rfo_hit : 50183
LLC-rfo_miss : 1980
LLC-prefetch_access : 2509322
LLC-prefetch_hit : 2456658
LLC-prefetch_miss : 52664
LLC-writeback_access : 92852
LLC-writeback_hit : 92469
LLC-writeback_miss : 383
LLC-prefetch_requested : 0
LLC-prefetch_issued : 0
LLC-prefetch_useful : 2370
LLC-prefetch_useless : 49732
LLC-Avg_miss_latency : 158.084
LLC-Morteza_fill_l2_prefetches : 2113927

Major fault: 0 Minor fault: 6037



Printing Logs
statHeadFound: 2097803
statHeadMissing: 2218363
statStreamBufferHit: 10119876
statPrefetchEntryFound: 8545821
statCompactorMatch: 11111644
statStreamTrackerLookup: 14436042
statRecord: 3324398
statGetPointer: 4316166
statEnqueuePrefetch: 23270093
statPrefetchQueueIsFull: 316
StreamBufferHitRate: 0.701015
Regions' size: 2004
next_region_correct: 2286335
next_region_wrong: 1036051
next_region_correct_prediction: 0.688161
statStreamBufferLookups: 144360420
statL1iLookups: 186160744
statCompactorLookups: 230976672
morteza: start

SHEET
mana_table_access_counter : 11870527
hobp_table_access_counter : 39108430
sab_access_counter : 18665697
srq_access_counter : 16733760

morteza: end
CPU 0 L1D next line prefetcher final stats

DRAM Statistics
 CHANNEL 0
 RQ ROW_BUFFER_HIT:      21162  ROW_BUFFER_MISS:      49645
 DBUS_CONGESTED:      28323
 WQ ROW_BUFFER_HIT:        466  ROW_BUFFER_MISS:       3136  FULL:          0

 AVG_CONGESTED_CYCLE: 5

CPU 0 Branch Prediction Accuracy: 99.7093% MPKI: 0.54708 Average ROB Occupancy at Mispredict: 129.585

Branch types
NOT_BRANCH: 40590938 81.1819%
BRANCH_DIRECT_JUMP: 523491 1.04698%
BRANCH_INDIRECT: 166997 0.333994%
BRANCH_CONDITIONAL: 6365189 12.7304%
BRANCH_DIRECT_CALL: 989494 1.97899%
BRANCH_INDIRECT_CALL: 187203 0.374406%
BRANCH_RETURN: 1176698 2.3534%
BRANCH_OTHER: 0 0%

