Initialize SIGNATURE TABLE
ST_SET: 1
ST_WAY: 256
ST_TAG_BIT: 16
ST_TAG_MASK: ffff

Initialize PATTERN TABLE
PT_SET: 512
PT_WAY: 4
SIG_DELTA_BIT: 7
C_SIG_BIT: 4
C_DELTA_BIT: 4

Initialize PREFETCH FILTER
FILTER_SET: 1024
MANA initialize 
tds: 2 tdm: 2
size MANA SINGLE: 15.5 KB
size MANA NULTIPLE: 0 KB
size HOBPT: 0.703125 KB
size SRQ: 0.0644531 KB
size SABs: 0.0402832 KB
size prefetch queue: 0.453125 KB
total: 16.761 KB

*** ChampSim Multicore Out-of-Order Simulator ***

Warmup Instructions: 50000000
Simulation Instructions: 50000000
Number of CPUs: 1
LLC sets: 2048
LLC ways: 16
Off-chip DRAM Size: 4096 MB Channels: 1 Width: 64-bit Data Rate: 3200 MT/s

CPU 0 runs /home/mbaradaran/ChampSim/dpc3_traces/server_016.champsimtrace.xz
CPU 0 L1D next line prefetcher
Heartbeat CPU 0 instructions: 10000000 cycles: 3498920 heartbeat IPC: 2.85802 cumulative IPC: 2.85802 (Simulation time: 0 hr 1 min 25 sec) 
Heartbeat CPU 0 instructions: 20000000 cycles: 6998599 heartbeat IPC: 2.8574 cumulative IPC: 2.85771 (Simulation time: 0 hr 2 min 46 sec) 
Heartbeat CPU 0 instructions: 30000001 cycles: 10494133 heartbeat IPC: 2.86079 cumulative IPC: 2.85874 (Simulation time: 0 hr 4 min 6 sec) 
Heartbeat CPU 0 instructions: 40000000 cycles: 13792840 heartbeat IPC: 3.03149 cumulative IPC: 2.90006 (Simulation time: 0 hr 4 min 48 sec) 
Heartbeat CPU 0 instructions: 50000002 cycles: 17028305 heartbeat IPC: 3.09075 cumulative IPC: 2.93629 (Simulation time: 0 hr 5 min 18 sec) 

Warmup complete CPU 0 instructions: 50000002 cycles: 17028305 (Simulation time: 0 hr 5 min 18 sec) 

Heartbeat CPU 0 instructions: 60000001 cycles: 25058017 heartbeat IPC: 1.24537 cumulative IPC: 1.24537 (Simulation time: 0 hr 5 min 53 sec) 
Heartbeat CPU 0 instructions: 70000001 cycles: 32382108 heartbeat IPC: 1.36536 cumulative IPC: 1.30261 (Simulation time: 0 hr 7 min 9 sec) 
Heartbeat CPU 0 instructions: 80000000 cycles: 39841297 heartbeat IPC: 1.34063 cumulative IPC: 1.31504 (Simulation time: 0 hr 8 min 30 sec) 
Heartbeat CPU 0 instructions: 90000000 cycles: 47056814 heartbeat IPC: 1.3859 cumulative IPC: 1.33207 (Simulation time: 0 hr 9 min 45 sec) 
Heartbeat CPU 0 instructions: 100000000 cycles: 54423447 heartbeat IPC: 1.35747 cumulative IPC: 1.33707 (Simulation time: 0 hr 11 min 2 sec) 
Finished CPU 0 instructions: 50000001 cycles: 37395143 cumulative IPC: 1.33707 (Simulation time: 0 hr 11 min 2 sec) 

ChampSim completed all CPUs

Region of Interest Statistics

CPU 0 cumulative IPC: 1.33707 instructions: 50000001 cycles: 37395143

SHEET
IPC : 1.33707

L1D TOTAL     ACCESS:   18480537  HIT:   17212620  MISS:    1267917
L1D LOAD      ACCESS:    6774245  HIT:    6203117  MISS:     571128
L1D RFO       ACCESS:    5207354  HIT:    4985279  MISS:     222075
L1D PREFETCH  ACCESS:    6498938  HIT:    6024224  MISS:     474714
L1D WRITEBACK ACCESS:          0  HIT:          0  MISS:          0
L1D PREFETCH  REQUESTED:    6816408  ISSUED:    6716840  USEFUL:     115273  USELESS:     359459
L1D AVERAGE MISS LATENCY: 22.8752 cycles
L1D

SHEET
L1D-total_access : 18480537
L1D-total_hit : 17212620
L1D-total_miss : 1267917
L1D-load_access : 6774245
L1D-load_hit : 6203117
L1D-load_miss : 571128
L1D-rfo_access : 5207354
L1D-rfo_hit : 4985279
L1D-rfo_miss : 222075
L1D-prefetch_access : 6498938
L1D-prefetch_hit : 6024224
L1D-prefetch_miss : 474714
L1D-writeback_access : 0
L1D-writeback_hit : 0
L1D-writeback_miss : 0
L1D-prefetch_requested : 6816408
L1D-prefetch_issued : 6716840
L1D-prefetch_useful : 115273
L1D-prefetch_useless : 359459
L1D-Avg_miss_latency : 22.8752
L1D-Morteza_fill_l2_prefetches : 0

L1I TOTAL     ACCESS:   17850756  HIT:   14780068  MISS:    3070688
L1I LOAD      ACCESS:    9689364  HIT:    8900663  MISS:     788701
L1I RFO       ACCESS:          0  HIT:          0  MISS:          0
L1I PREFETCH  ACCESS:    8161392  HIT:    5879405  MISS:    2281987
L1I WRITEBACK ACCESS:          0  HIT:          0  MISS:          0
L1I PREFETCH  REQUESTED:    9215822  ISSUED:    9195356  USEFUL:    1459333  USELESS:     822625
L1I AVERAGE MISS LATENCY: 15.9903 cycles
L1I

SHEET
L1I-total_access : 17850756
L1I-total_hit : 14780068
L1I-total_miss : 3070688
L1I-load_access : 9689364
L1I-load_hit : 8900663
L1I-load_miss : 788701
L1I-rfo_access : 0
L1I-rfo_hit : 0
L1I-rfo_miss : 0
L1I-prefetch_access : 8161392
L1I-prefetch_hit : 5879405
L1I-prefetch_miss : 2281987
L1I-writeback_access : 0
L1I-writeback_hit : 0
L1I-writeback_miss : 0
L1I-prefetch_requested : 9215822
L1I-prefetch_issued : 9195356
L1I-prefetch_useful : 1459333
L1I-prefetch_useless : 822625
L1I-Avg_miss_latency : 15.9903
L1I-Morteza_fill_l2_prefetches : 0

L2C TOTAL     ACCESS:    5986136  HIT:    5485144  MISS:     500992
L2C LOAD      ACCESS:    1076120  HIT:     928911  MISS:     147209
L2C RFO       ACCESS:     220647  HIT:     160491  MISS:      60156
L2C PREFETCH  ACCESS:    4261138  HIT:    3969422  MISS:     291716
L2C WRITEBACK ACCESS:     428231  HIT:     426320  MISS:       1911
L2C PREFETCH  REQUESTED:    4884197  ISSUED:    4878189  USEFUL:      26760  USELESS:     264705
L2C AVERAGE MISS LATENCY: 41.6958 cycles
L2C

SHEET
L2C-total_access : 5986136
L2C-total_hit : 5485144
L2C-total_miss : 500992
L2C-load_access : 1076120
L2C-load_hit : 928911
L2C-load_miss : 147209
L2C-rfo_access : 220647
L2C-rfo_hit : 160491
L2C-rfo_miss : 60156
L2C-prefetch_access : 4261138
L2C-prefetch_hit : 3969422
L2C-prefetch_miss : 291716
L2C-writeback_access : 428231
L2C-writeback_hit : 426320
L2C-writeback_miss : 1911
L2C-prefetch_requested : 4884197
L2C-prefetch_issued : 4878189
L2C-prefetch_useful : 26760
L2C-prefetch_useless : 264705
L2C-Avg_miss_latency : 41.6958
L2C-Morteza_fill_l2_prefetches : 1255143

LLC TOTAL     ACCESS:    1891909  HIT:    1855791  MISS:      36118
LLC LOAD      ACCESS:     147118  HIT:     142744  MISS:       4374
LLC RFO       ACCESS:      60156  HIT:      46833  MISS:      13323
LLC PREFETCH  ACCESS:    1587144  HIT:    1568871  MISS:      18273
LLC WRITEBACK ACCESS:      97491  HIT:      97343  MISS:        148
LLC PREFETCH  REQUESTED:          0  ISSUED:          0  USEFUL:       2017  USELESS:      15846
LLC AVERAGE MISS LATENCY: 176.75 cycles
LLC

SHEET
LLC-total_access : 1891909
LLC-total_hit : 1855791
LLC-total_miss : 36118
LLC-load_access : 147118
LLC-load_hit : 142744
LLC-load_miss : 4374
LLC-rfo_access : 60156
LLC-rfo_hit : 46833
LLC-rfo_miss : 13323
LLC-prefetch_access : 1587144
LLC-prefetch_hit : 1568871
LLC-prefetch_miss : 18273
LLC-writeback_access : 97491
LLC-writeback_hit : 97343
LLC-writeback_miss : 148
LLC-prefetch_requested : 0
LLC-prefetch_issued : 0
LLC-prefetch_useful : 2017
LLC-prefetch_useless : 15846
LLC-Avg_miss_latency : 176.75
LLC-Morteza_fill_l2_prefetches : 1296354

Major fault: 0 Minor fault: 2365



Printing Logs
statHeadFound: 1481356
statHeadMissing: 1657026
statStreamBufferHit: 11624529
statPrefetchEntryFound: 6137803
statCompactorMatch: 12400824
statStreamTrackerLookup: 14762911
statRecord: 2362087
statGetPointer: 3138382
statEnqueuePrefetch: 16533750
statPrefetchQueueIsFull: 192
StreamBufferHitRate: 0.787414
Regions' size: 2457
next_region_correct: 1621659
next_region_wrong: 737963
next_region_correct_prediction: 0.687254
statStreamBufferLookups: 147629110
statL1iLookups: 132270000
statCompactorLookups: 236206576
morteza: start

SHEET
mana_table_access_counter : 8500074
hobp_table_access_counter : 28139911
sab_access_counter : 17762332
srq_access_counter : 16270627

morteza: end
CPU 0 L1D next line prefetcher final stats

DRAM Statistics
 CHANNEL 0
 RQ ROW_BUFFER_HIT:      11419  ROW_BUFFER_MISS:      24548
 DBUS_CONGESTED:      23540
 WQ ROW_BUFFER_HIT:       1668  ROW_BUFFER_MISS:      14578  FULL:          0

 AVG_CONGESTED_CYCLE: 6

CPU 0 Branch Prediction Accuracy: 99.7225% MPKI: 0.50376 Average ROB Occupancy at Mispredict: 104.244

Branch types
NOT_BRANCH: 40923882 81.8478%
BRANCH_DIRECT_JUMP: 487045 0.97409%
BRANCH_INDIRECT: 169158 0.338316%
BRANCH_CONDITIONAL: 6640823 13.2816%
BRANCH_DIRECT_CALL: 755586 1.51117%
BRANCH_INDIRECT_CALL: 133962 0.267924%
BRANCH_RETURN: 889566 1.77913%
BRANCH_OTHER: 0 0%

