Initialize SIGNATURE TABLE
ST_SET: 1
ST_WAY: 256
ST_TAG_BIT: 16
ST_TAG_MASK: ffff

Initialize PATTERN TABLE
PT_SET: 512
PT_WAY: 4
SIG_DELTA_BIT: 7
C_SIG_BIT: 4
C_DELTA_BIT: 4

Initialize PREFETCH FILTER
FILTER_SET: 1024
MANA initialize 
tds: 2 tdm: 2
size MANA SINGLE: 15.5 KB
size MANA NULTIPLE: 0 KB
size HOBPT: 0.703125 KB
size SRQ: 0.0644531 KB
size SABs: 0.0402832 KB
size prefetch queue: 0.453125 KB
total: 16.761 KB

*** ChampSim Multicore Out-of-Order Simulator ***

Warmup Instructions: 50000000
Simulation Instructions: 50000000
Number of CPUs: 1
LLC sets: 2048
LLC ways: 16
Off-chip DRAM Size: 4096 MB Channels: 1 Width: 64-bit Data Rate: 3200 MT/s

CPU 0 runs /home/mbaradaran/ChampSim/dpc3_traces/server_025.champsimtrace.xz
CPU 0 L1D next line prefetcher
Heartbeat CPU 0 instructions: 10000003 cycles: 3531662 heartbeat IPC: 2.83153 cumulative IPC: 2.83153 (Simulation time: 0 hr 1 min 24 sec) 
Heartbeat CPU 0 instructions: 20000000 cycles: 7071224 heartbeat IPC: 2.82521 cumulative IPC: 2.82836 (Simulation time: 0 hr 2 min 46 sec) 
Heartbeat CPU 0 instructions: 30000001 cycles: 10602362 heartbeat IPC: 2.83195 cumulative IPC: 2.82956 (Simulation time: 0 hr 4 min 11 sec) 
Heartbeat CPU 0 instructions: 40000003 cycles: 14139733 heartbeat IPC: 2.82696 cumulative IPC: 2.82891 (Simulation time: 0 hr 5 min 35 sec) 
Heartbeat CPU 0 instructions: 50000001 cycles: 17675190 heartbeat IPC: 2.82849 cumulative IPC: 2.82882 (Simulation time: 0 hr 6 min 57 sec) 

Warmup complete CPU 0 instructions: 50000001 cycles: 17675190 (Simulation time: 0 hr 6 min 57 sec) 

Heartbeat CPU 0 instructions: 60000000 cycles: 25139356 heartbeat IPC: 1.33973 cumulative IPC: 1.33973 (Simulation time: 0 hr 8 min 20 sec) 
Heartbeat CPU 0 instructions: 70000000 cycles: 32719253 heartbeat IPC: 1.31928 cumulative IPC: 1.32943 (Simulation time: 0 hr 9 min 42 sec) 
Heartbeat CPU 0 instructions: 80000002 cycles: 40181345 heartbeat IPC: 1.34011 cumulative IPC: 1.33297 (Simulation time: 0 hr 11 min 1 sec) 
Heartbeat CPU 0 instructions: 90000001 cycles: 47165957 heartbeat IPC: 1.43172 cumulative IPC: 1.35636 (Simulation time: 0 hr 12 min 20 sec) 
Heartbeat CPU 0 instructions: 100000003 cycles: 53749804 heartbeat IPC: 1.51887 cumulative IPC: 1.38602 (Simulation time: 0 hr 13 min 44 sec) 
Finished CPU 0 instructions: 50000002 cycles: 36074614 cumulative IPC: 1.38602 (Simulation time: 0 hr 13 min 44 sec) 

ChampSim completed all CPUs

Region of Interest Statistics

CPU 0 cumulative IPC: 1.38602 instructions: 50000002 cycles: 36074614

SHEET
IPC : 1.38602

L1D TOTAL     ACCESS:   20589255  HIT:   19163131  MISS:    1426124
L1D LOAD      ACCESS:    7250146  HIT:    6631906  MISS:     618240
L1D RFO       ACCESS:    6396367  HIT:    6147938  MISS:     248429
L1D PREFETCH  ACCESS:    6942742  HIT:    6383287  MISS:     559455
L1D WRITEBACK ACCESS:          0  HIT:          0  MISS:          0
L1D PREFETCH  REQUESTED:    7291556  ISSUED:    7125390  USEFUL:     131780  USELESS:     427668
L1D AVERAGE MISS LATENCY: 22.7889 cycles
L1D

SHEET
L1D-total_access : 20589255
L1D-total_hit : 19163131
L1D-total_miss : 1426124
L1D-load_access : 7250146
L1D-load_hit : 6631906
L1D-load_miss : 618240
L1D-rfo_access : 6396367
L1D-rfo_hit : 6147938
L1D-rfo_miss : 248429
L1D-prefetch_access : 6942742
L1D-prefetch_hit : 6383287
L1D-prefetch_miss : 559455
L1D-writeback_access : 0
L1D-writeback_hit : 0
L1D-writeback_miss : 0
L1D-prefetch_requested : 7291556
L1D-prefetch_issued : 7125390
L1D-prefetch_useful : 131780
L1D-prefetch_useless : 427668
L1D-Avg_miss_latency : 22.7889
L1D-Morteza_fill_l2_prefetches : 0

L1I TOTAL     ACCESS:   20081814  HIT:   16474842  MISS:    3606972
L1I LOAD      ACCESS:    9252276  HIT:    8315280  MISS:     936996
L1I RFO       ACCESS:          0  HIT:          0  MISS:          0
L1I PREFETCH  ACCESS:   10829538  HIT:    8159562  MISS:    2669976
L1I WRITEBACK ACCESS:          0  HIT:          0  MISS:          0
L1I PREFETCH  REQUESTED:   12120967  ISSUED:   12102320  USEFUL:    1685705  USELESS:     984297
L1I AVERAGE MISS LATENCY: 16.1289 cycles
L1I

SHEET
L1I-total_access : 20081814
L1I-total_hit : 16474842
L1I-total_miss : 3606972
L1I-load_access : 9252276
L1I-load_hit : 8315280
L1I-load_miss : 936996
L1I-rfo_access : 0
L1I-rfo_hit : 0
L1I-rfo_miss : 0
L1I-prefetch_access : 10829538
L1I-prefetch_hit : 8159562
L1I-prefetch_miss : 2669976
L1I-writeback_access : 0
L1I-writeback_hit : 0
L1I-writeback_miss : 0
L1I-prefetch_requested : 12120967
L1I-prefetch_issued : 12102320
L1I-prefetch_useful : 1685705
L1I-prefetch_useless : 984297
L1I-Avg_miss_latency : 16.1289
L1I-Morteza_fill_l2_prefetches : 0

L2C TOTAL     ACCESS:    6934934  HIT:    6314332  MISS:     620602
L2C LOAD      ACCESS:    1250853  HIT:    1065833  MISS:     185020
L2C RFO       ACCESS:     246807  HIT:     171743  MISS:      75064
L2C PREFETCH  ACCESS:    4940656  HIT:    4583876  MISS:     356780
L2C WRITEBACK ACCESS:     496618  HIT:     492880  MISS:       3738
L2C PREFETCH  REQUESTED:    5545958  ISSUED:    5538650  USEFUL:      28986  USELESS:     326953
L2C AVERAGE MISS LATENCY: 38.5064 cycles
L2C

SHEET
L2C-total_access : 6934934
L2C-total_hit : 6314332
L2C-total_miss : 620602
L2C-load_access : 1250853
L2C-load_hit : 1065833
L2C-load_miss : 185020
L2C-rfo_access : 246807
L2C-rfo_hit : 171743
L2C-rfo_miss : 75064
L2C-prefetch_access : 4940656
L2C-prefetch_hit : 4583876
L2C-prefetch_miss : 356780
L2C-writeback_access : 496618
L2C-writeback_hit : 492880
L2C-writeback_miss : 3738
L2C-prefetch_requested : 5545958
L2C-prefetch_issued : 5538650
L2C-prefetch_useful : 28986
L2C-prefetch_useless : 326953
L2C-Avg_miss_latency : 38.5064
L2C-Morteza_fill_l2_prefetches : 1433972

LLC TOTAL     ACCESS:    2216160  HIT:    2188230  MISS:      27930
LLC LOAD      ACCESS:     184937  HIT:     181561  MISS:       3376
LLC RFO       ACCESS:      75028  HIT:      64329  MISS:      10699
LLC PREFETCH  ACCESS:    1830328  HIT:    1816683  MISS:      13645
LLC WRITEBACK ACCESS:     125867  HIT:     125657  MISS:        210
LLC PREFETCH  REQUESTED:          0  ISSUED:          0  USEFUL:       1292  USELESS:      11485
LLC AVERAGE MISS LATENCY: 180.623 cycles
LLC

SHEET
LLC-total_access : 2216160
LLC-total_hit : 2188230
LLC-total_miss : 27930
LLC-load_access : 184937
LLC-load_hit : 181561
LLC-load_miss : 3376
LLC-rfo_access : 75028
LLC-rfo_hit : 64329
LLC-rfo_miss : 10699
LLC-prefetch_access : 1830328
LLC-prefetch_hit : 1816683
LLC-prefetch_miss : 13645
LLC-writeback_access : 125867
LLC-writeback_hit : 125657
LLC-writeback_miss : 210
LLC-prefetch_requested : 0
LLC-prefetch_issued : 0
LLC-prefetch_useful : 1292
LLC-prefetch_useless : 11485
LLC-Avg_miss_latency : 180.623
LLC-Morteza_fill_l2_prefetches : 1479560

Major fault: 0 Minor fault: 2457



Printing Logs
statHeadFound: 2176997
statHeadMissing: 2746976
statStreamBufferHit: 9477170
statPrefetchEntryFound: 8833437
statCompactorMatch: 11028699
statStreamTrackerLookup: 14401143
statRecord: 3372444
statGetPointer: 4923973
statEnqueuePrefetch: 23776612
statPrefetchQueueIsFull: 414
StreamBufferHitRate: 0.658085
Regions' size: 2480
next_region_correct: 2234603
next_region_wrong: 1135353
next_region_correct_prediction: 0.663096
statStreamBufferLookups: 144011430
statL1iLookups: 190212896
statCompactorLookups: 230418288
morteza: start

SHEET
mana_table_access_counter : 12206287
hobp_table_access_counter : 42019559
sab_access_counter : 18310607
srq_access_counter : 16726722

morteza: end
CPU 0 L1D next line prefetcher final stats

DRAM Statistics
 CHANNEL 0
 RQ ROW_BUFFER_HIT:       9042  ROW_BUFFER_MISS:      18670
 DBUS_CONGESTED:      18875
 WQ ROW_BUFFER_HIT:       1350  ROW_BUFFER_MISS:      11732  FULL:          0

 AVG_CONGESTED_CYCLE: 6

CPU 0 Branch Prediction Accuracy: 99.8142% MPKI: 0.34676 Average ROB Occupancy at Mispredict: 147.797

Branch types
NOT_BRANCH: 40668795 81.3376%
BRANCH_DIRECT_JUMP: 531700 1.0634%
BRANCH_INDIRECT: 199025 0.39805%
BRANCH_CONDITIONAL: 6211477 12.423%
BRANCH_DIRECT_CALL: 1010910 2.02182%
BRANCH_INDIRECT_CALL: 183501 0.367002%
BRANCH_RETURN: 1194412 2.38882%
BRANCH_OTHER: 0 0%

