Initialize SIGNATURE TABLE
ST_SET: 1
ST_WAY: 256
ST_TAG_BIT: 16
ST_TAG_MASK: ffff

Initialize PATTERN TABLE
PT_SET: 512
PT_WAY: 4
SIG_DELTA_BIT: 7
C_SIG_BIT: 4
C_DELTA_BIT: 4

Initialize PREFETCH FILTER
FILTER_SET: 1024
MANA initialize 
tds: 2 tdm: 2
size MANA SINGLE: 15.5 KB
size MANA NULTIPLE: 0 KB
size HOBPT: 0.703125 KB
size SRQ: 0.0644531 KB
size SABs: 0.0402832 KB
size prefetch queue: 0.453125 KB
total: 16.761 KB

*** ChampSim Multicore Out-of-Order Simulator ***

Warmup Instructions: 50000000
Simulation Instructions: 50000000
Number of CPUs: 1
LLC sets: 2048
LLC ways: 16
Off-chip DRAM Size: 4096 MB Channels: 1 Width: 64-bit Data Rate: 3200 MT/s

CPU 0 runs /home/mbaradaran/ChampSim/dpc3_traces/server_012.champsimtrace.xz
CPU 0 L1D next line prefetcher
Heartbeat CPU 0 instructions: 10000002 cycles: 3198130 heartbeat IPC: 3.12683 cumulative IPC: 3.12683 (Simulation time: 0 hr 1 min 20 sec) 
Heartbeat CPU 0 instructions: 20000002 cycles: 6399583 heartbeat IPC: 3.12358 cumulative IPC: 3.1252 (Simulation time: 0 hr 2 min 38 sec) 
Heartbeat CPU 0 instructions: 30000001 cycles: 9601797 heartbeat IPC: 3.12284 cumulative IPC: 3.12442 (Simulation time: 0 hr 3 min 58 sec) 
Heartbeat CPU 0 instructions: 40000000 cycles: 12809789 heartbeat IPC: 3.11721 cumulative IPC: 3.12261 (Simulation time: 0 hr 5 min 23 sec) 
Heartbeat CPU 0 instructions: 50000003 cycles: 16011073 heartbeat IPC: 3.12375 cumulative IPC: 3.12284 (Simulation time: 0 hr 6 min 44 sec) 

Warmup complete CPU 0 instructions: 50000003 cycles: 16011073 (Simulation time: 0 hr 6 min 44 sec) 

Heartbeat CPU 0 instructions: 60000002 cycles: 23799132 heartbeat IPC: 1.28402 cumulative IPC: 1.28402 (Simulation time: 0 hr 7 min 56 sec) 
Heartbeat CPU 0 instructions: 70000000 cycles: 31633374 heartbeat IPC: 1.27645 cumulative IPC: 1.28022 (Simulation time: 0 hr 9 min 13 sec) 
Heartbeat CPU 0 instructions: 80000003 cycles: 39525266 heartbeat IPC: 1.26712 cumulative IPC: 1.27583 (Simulation time: 0 hr 10 min 30 sec) 
Heartbeat CPU 0 instructions: 90000001 cycles: 47625965 heartbeat IPC: 1.23446 cumulative IPC: 1.26523 (Simulation time: 0 hr 11 min 46 sec) 
Heartbeat CPU 0 instructions: 100000002 cycles: 55631497 heartbeat IPC: 1.24914 cumulative IPC: 1.26198 (Simulation time: 0 hr 12 min 57 sec) 
Finished CPU 0 instructions: 50000001 cycles: 39620425 cumulative IPC: 1.26198 (Simulation time: 0 hr 12 min 57 sec) 

ChampSim completed all CPUs

Region of Interest Statistics

CPU 0 cumulative IPC: 1.26198 instructions: 50000001 cycles: 39620425

SHEET
IPC : 1.26198

L1D TOTAL     ACCESS:   17652902  HIT:   16609310  MISS:    1043592
L1D LOAD      ACCESS:    6458024  HIT:    5973297  MISS:     484727
L1D RFO       ACCESS:    4974931  HIT:    4892817  MISS:      82114
L1D PREFETCH  ACCESS:    6219947  HIT:    5743196  MISS:     476751
L1D WRITEBACK ACCESS:          0  HIT:          0  MISS:          0
L1D PREFETCH  REQUESTED:    6494176  ISSUED:    6393749  USEFUL:     135830  USELESS:     340941
L1D AVERAGE MISS LATENCY: 40.1859 cycles
L1D

SHEET
L1D-total_access : 17652902
L1D-total_hit : 16609310
L1D-total_miss : 1043592
L1D-load_access : 6458024
L1D-load_hit : 5973297
L1D-load_miss : 484727
L1D-rfo_access : 4974931
L1D-rfo_hit : 4892817
L1D-rfo_miss : 82114
L1D-prefetch_access : 6219947
L1D-prefetch_hit : 5743196
L1D-prefetch_miss : 476751
L1D-writeback_access : 0
L1D-writeback_hit : 0
L1D-writeback_miss : 0
L1D-prefetch_requested : 6494176
L1D-prefetch_issued : 6393749
L1D-prefetch_useful : 135830
L1D-prefetch_useless : 340941
L1D-Avg_miss_latency : 40.1859
L1D-Morteza_fill_l2_prefetches : 0

L1I TOTAL     ACCESS:   19131619  HIT:   16848752  MISS:    2282867
L1I LOAD      ACCESS:    8651946  HIT:    8156174  MISS:     495772
L1I RFO       ACCESS:          0  HIT:          0  MISS:          0
L1I PREFETCH  ACCESS:   10479673  HIT:    8692578  MISS:    1787095
L1I WRITEBACK ACCESS:          0  HIT:          0  MISS:          0
L1I PREFETCH  REQUESTED:   11592898  ISSUED:   11489097  USEFUL:    1124176  USELESS:     662982
L1I AVERAGE MISS LATENCY: 25.7697 cycles
L1I

SHEET
L1I-total_access : 19131619
L1I-total_hit : 16848752
L1I-total_miss : 2282867
L1I-load_access : 8651946
L1I-load_hit : 8156174
L1I-load_miss : 495772
L1I-rfo_access : 0
L1I-rfo_hit : 0
L1I-rfo_miss : 0
L1I-prefetch_access : 10479673
L1I-prefetch_hit : 8692578
L1I-prefetch_miss : 1787095
L1I-writeback_access : 0
L1I-writeback_hit : 0
L1I-writeback_miss : 0
L1I-prefetch_requested : 11592898
L1I-prefetch_issued : 11489097
L1I-prefetch_useful : 1124176
L1I-prefetch_useless : 662982
L1I-Avg_miss_latency : 25.7697
L1I-Morteza_fill_l2_prefetches : 0

L2C TOTAL     ACCESS:    4355910  HIT:    3096811  MISS:    1259099
L2C LOAD      ACCESS:     802155  HIT:     399777  MISS:     402378
L2C RFO       ACCESS:      80907  HIT:      31312  MISS:      49595
L2C PREFETCH  ACCESS:    3197275  HIT:    2391610  MISS:     805665
L2C WRITEBACK ACCESS:     275573  HIT:     274112  MISS:       1461
L2C PREFETCH  REQUESTED:    3962053  ISSUED:    3957179  USEFUL:      56215  USELESS:     748883
L2C AVERAGE MISS LATENCY: 44.8742 cycles
L2C

SHEET
L2C-total_access : 4355910
L2C-total_hit : 3096811
L2C-total_miss : 1259099
L2C-load_access : 802155
L2C-load_hit : 399777
L2C-load_miss : 402378
L2C-rfo_access : 80907
L2C-rfo_hit : 31312
L2C-rfo_miss : 49595
L2C-prefetch_access : 3197275
L2C-prefetch_hit : 2391610
L2C-prefetch_miss : 805665
L2C-writeback_access : 275573
L2C-writeback_hit : 274112
L2C-writeback_miss : 1461
L2C-prefetch_requested : 3962053
L2C-prefetch_issued : 3957179
L2C-prefetch_useful : 56215
L2C-prefetch_useless : 748883
L2C-Avg_miss_latency : 44.8742
L2C-Morteza_fill_l2_prefetches : 763904

LLC TOTAL     ACCESS:    2570110  HIT:    2415626  MISS:     154484
LLC LOAD      ACCESS:     400578  HIT:     375723  MISS:      24855
LLC RFO       ACCESS:      49591  HIT:      39206  MISS:      10385
LLC PREFETCH  ACCESS:    1952829  HIT:    1833927  MISS:     118902
LLC WRITEBACK ACCESS:     167112  HIT:     166770  MISS:        342
LLC PREFETCH  REQUESTED:          0  ISSUED:          0  USEFUL:      13800  USELESS:     105735
LLC AVERAGE MISS LATENCY: 167.94 cycles
LLC

SHEET
LLC-total_access : 2570110
LLC-total_hit : 2415626
LLC-total_miss : 154484
LLC-load_access : 400578
LLC-load_hit : 375723
LLC-load_miss : 24855
LLC-rfo_access : 49591
LLC-rfo_hit : 39206
LLC-rfo_miss : 10385
LLC-prefetch_access : 1952829
LLC-prefetch_hit : 1833927
LLC-prefetch_miss : 118902
LLC-writeback_access : 167112
LLC-writeback_hit : 166770
LLC-writeback_miss : 342
LLC-prefetch_requested : 0
LLC-prefetch_issued : 0
LLC-prefetch_useful : 13800
LLC-prefetch_useless : 105735
LLC-Avg_miss_latency : 167.94
LLC-Morteza_fill_l2_prefetches : 1133619

Major fault: 0 Minor fault: 5596



Printing Logs
statHeadFound: 1596145
statHeadMissing: 1329996
statStreamBufferHit: 9221416
statPrefetchEntryFound: 6872139
statCompactorMatch: 9802339
statStreamTrackerLookup: 12147557
statRecord: 2345218
statGetPointer: 2926141
statEnqueuePrefetch: 22859519
statPrefetchQueueIsFull: 8407
StreamBufferHitRate: 0.759117
Regions' size: 3952
next_region_correct: 1854524
next_region_wrong: 486734
next_region_correct_prediction: 0.792106
statStreamBufferLookups: 121475570
statL1iLookups: 182876152
statCompactorLookups: 194360912
morteza: start

SHEET
mana_table_access_counter : 9225756
hobp_table_access_counter : 27966035
sab_access_counter : 16093555
srq_access_counter : 13319338

morteza: end
CPU 0 L1D next line prefetcher final stats

DRAM Statistics
 CHANNEL 0
 RQ ROW_BUFFER_HIT:      24762  ROW_BUFFER_MISS:     129378
 DBUS_CONGESTED:      66007
 WQ ROW_BUFFER_HIT:      10669  ROW_BUFFER_MISS:      48585  FULL:          0

 AVG_CONGESTED_CYCLE: 5

CPU 0 Branch Prediction Accuracy: 99.4607% MPKI: 1.00288 Average ROB Occupancy at Mispredict: 99.5772

Branch types
NOT_BRANCH: 40701044 81.4021%
BRANCH_DIRECT_JUMP: 469809 0.939618%
BRANCH_INDIRECT: 153732 0.307464%
BRANCH_CONDITIONAL: 6944072 13.8881%
BRANCH_DIRECT_CALL: 679878 1.35976%
BRANCH_INDIRECT_CALL: 168745 0.33749%
BRANCH_RETURN: 882492 1.76498%
BRANCH_OTHER: 0 0%

