Initialize SIGNATURE TABLE
ST_SET: 1
ST_WAY: 256
ST_TAG_BIT: 16
ST_TAG_MASK: ffff

Initialize PATTERN TABLE
PT_SET: 512
PT_WAY: 4
SIG_DELTA_BIT: 7
C_SIG_BIT: 4
C_DELTA_BIT: 4

Initialize PREFETCH FILTER
FILTER_SET: 1024
MANA initialize 
tds: 2 tdm: 2
size MANA SINGLE: 15.5 KB
size MANA NULTIPLE: 0 KB
size HOBPT: 0.703125 KB
size SRQ: 0.0644531 KB
size SABs: 0.0402832 KB
size prefetch queue: 0.453125 KB
total: 16.761 KB

*** ChampSim Multicore Out-of-Order Simulator ***

Warmup Instructions: 50000000
Simulation Instructions: 50000000
Number of CPUs: 1
LLC sets: 2048
LLC ways: 16
Off-chip DRAM Size: 4096 MB Channels: 1 Width: 64-bit Data Rate: 3200 MT/s

CPU 0 runs /home/mbaradaran/ChampSim/dpc3_traces/spec_perlbench_001.champsimtrace.xz
CPU 0 L1D next line prefetcher
Heartbeat CPU 0 instructions: 10000000 cycles: 3275973 heartbeat IPC: 3.05253 cumulative IPC: 3.05253 (Simulation time: 0 hr 1 min 20 sec) 
Heartbeat CPU 0 instructions: 20000000 cycles: 6540799 heartbeat IPC: 3.06295 cumulative IPC: 3.05773 (Simulation time: 0 hr 2 min 33 sec) 
Heartbeat CPU 0 instructions: 30000002 cycles: 9858145 heartbeat IPC: 3.01446 cumulative IPC: 3.04317 (Simulation time: 0 hr 3 min 45 sec) 
Heartbeat CPU 0 instructions: 40000002 cycles: 13113797 heartbeat IPC: 3.07158 cumulative IPC: 3.05022 (Simulation time: 0 hr 4 min 53 sec) 
Heartbeat CPU 0 instructions: 50000001 cycles: 16387704 heartbeat IPC: 3.05445 cumulative IPC: 3.05107 (Simulation time: 0 hr 5 min 58 sec) 

Warmup complete CPU 0 instructions: 50000001 cycles: 16387704 (Simulation time: 0 hr 5 min 58 sec) 

Heartbeat CPU 0 instructions: 60000001 cycles: 24753497 heartbeat IPC: 1.19534 cumulative IPC: 1.19534 (Simulation time: 0 hr 7 min 1 sec) 
Heartbeat CPU 0 instructions: 70000000 cycles: 33016650 heartbeat IPC: 1.21019 cumulative IPC: 1.20272 (Simulation time: 0 hr 8 min 6 sec) 
Heartbeat CPU 0 instructions: 80000000 cycles: 41480622 heartbeat IPC: 1.18148 cumulative IPC: 1.19556 (Simulation time: 0 hr 9 min 8 sec) 
Heartbeat CPU 0 instructions: 90000000 cycles: 47207725 heartbeat IPC: 1.74608 cumulative IPC: 1.29786 (Simulation time: 0 hr 9 min 57 sec) 
Heartbeat CPU 0 instructions: 100000002 cycles: 53077620 heartbeat IPC: 1.70361 cumulative IPC: 1.36277 (Simulation time: 0 hr 10 min 46 sec) 
Finished CPU 0 instructions: 50000001 cycles: 36689916 cumulative IPC: 1.36277 (Simulation time: 0 hr 10 min 46 sec) 

ChampSim completed all CPUs

Region of Interest Statistics

CPU 0 cumulative IPC: 1.36277 instructions: 50000001 cycles: 36689916

SHEET
IPC : 1.36277

L1D TOTAL     ACCESS:   20757224  HIT:   20342100  MISS:     415124
L1D LOAD      ACCESS:    7207243  HIT:    6993600  MISS:     213643
L1D RFO       ACCESS:    6543371  HIT:    6524861  MISS:      18510
L1D PREFETCH  ACCESS:    7006610  HIT:    6823639  MISS:     182971
L1D WRITEBACK ACCESS:          0  HIT:          0  MISS:          0
L1D PREFETCH  REQUESTED:    7223311  ISSUED:    7107543  USEFUL:      55291  USELESS:     127675
L1D AVERAGE MISS LATENCY: 58.0142 cycles
L1D

SHEET
L1D-total_access : 20757224
L1D-total_hit : 20342100
L1D-total_miss : 415124
L1D-load_access : 7207243
L1D-load_hit : 6993600
L1D-load_miss : 213643
L1D-rfo_access : 6543371
L1D-rfo_hit : 6524861
L1D-rfo_miss : 18510
L1D-prefetch_access : 7006610
L1D-prefetch_hit : 6823639
L1D-prefetch_miss : 182971
L1D-writeback_access : 0
L1D-writeback_hit : 0
L1D-writeback_miss : 0
L1D-prefetch_requested : 7223311
L1D-prefetch_issued : 7107543
L1D-prefetch_useful : 55291
L1D-prefetch_useless : 127675
L1D-Avg_miss_latency : 58.0142
L1D-Morteza_fill_l2_prefetches : 0

L1I TOTAL     ACCESS:   22004944  HIT:   21348511  MISS:     656433
L1I LOAD      ACCESS:    9143332  HIT:    8968376  MISS:     174956
L1I RFO       ACCESS:          0  HIT:          0  MISS:          0
L1I PREFETCH  ACCESS:   12861612  HIT:   12380135  MISS:     481477
L1I WRITEBACK ACCESS:          0  HIT:          0  MISS:          0
L1I PREFETCH  REQUESTED:   13989650  ISSUED:   13974314  USEFUL:     335220  USELESS:     146263
L1I AVERAGE MISS LATENCY: 15.9705 cycles
L1I

SHEET
L1I-total_access : 22004944
L1I-total_hit : 21348511
L1I-total_miss : 656433
L1I-load_access : 9143332
L1I-load_hit : 8968376
L1I-load_miss : 174956
L1I-rfo_access : 0
L1I-rfo_hit : 0
L1I-rfo_miss : 0
L1I-prefetch_access : 12861612
L1I-prefetch_hit : 12380135
L1I-prefetch_miss : 481477
L1I-writeback_access : 0
L1I-writeback_hit : 0
L1I-writeback_miss : 0
L1I-prefetch_requested : 13989650
L1I-prefetch_issued : 13974314
L1I-prefetch_useful : 335220
L1I-prefetch_useless : 146263
L1I-Avg_miss_latency : 15.9705
L1I-Morteza_fill_l2_prefetches : 0

L2C TOTAL     ACCESS:    1529012  HIT:    1363068  MISS:     165944
L2C LOAD      ACCESS:     327966  HIT:     246799  MISS:      81167
L2C RFO       ACCESS:      18274  HIT:      12918  MISS:       5356
L2C PREFETCH  ACCESS:    1103811  HIT:    1024720  MISS:      79091
L2C WRITEBACK ACCESS:      78961  HIT:      78631  MISS:        330
L2C PREFETCH  REQUESTED:     995342  ISSUED:     995309  USEFUL:       6362  USELESS:      72674
L2C AVERAGE MISS LATENCY: 120.359 cycles
L2C

SHEET
L2C-total_access : 1529012
L2C-total_hit : 1363068
L2C-total_miss : 165944
L2C-load_access : 327966
L2C-load_hit : 246799
L2C-load_miss : 81167
L2C-rfo_access : 18274
L2C-rfo_hit : 12918
L2C-rfo_miss : 5356
L2C-prefetch_access : 1103811
L2C-prefetch_hit : 1024720
L2C-prefetch_miss : 79091
L2C-writeback_access : 78961
L2C-writeback_hit : 78631
L2C-writeback_miss : 330
L2C-prefetch_requested : 995342
L2C-prefetch_issued : 995309
L2C-prefetch_useful : 6362
L2C-prefetch_useless : 72674
L2C-Avg_miss_latency : 120.359
L2C-Morteza_fill_l2_prefetches : 381624

LLC TOTAL     ACCESS:     409379  HIT:     265103  MISS:     144276
LLC LOAD      ACCESS:      81163  HIT:      32451  MISS:      48712
LLC RFO       ACCESS:       5356  HIT:       2306  MISS:       3050
LLC PREFETCH  ACCESS:     297744  HIT:     205738  MISS:      92006
LLC WRITEBACK ACCESS:      25116  HIT:      24608  MISS:        508
LLC PREFETCH  REQUESTED:          0  ISSUED:          0  USEFUL:      14970  USELESS:      76782
LLC AVERAGE MISS LATENCY: 160.664 cycles
LLC

SHEET
LLC-total_access : 409379
LLC-total_hit : 265103
LLC-total_miss : 144276
LLC-load_access : 81163
LLC-load_hit : 32451
LLC-load_miss : 48712
LLC-rfo_access : 5356
LLC-rfo_hit : 2306
LLC-rfo_miss : 3050
LLC-prefetch_access : 297744
LLC-prefetch_hit : 205738
LLC-prefetch_miss : 92006
LLC-writeback_access : 25116
LLC-writeback_hit : 24608
LLC-writeback_miss : 508
LLC-prefetch_requested : 0
LLC-prefetch_issued : 0
LLC-prefetch_useful : 14970
LLC-prefetch_useless : 76782
LLC-Avg_miss_latency : 160.664
LLC-Morteza_fill_l2_prefetches : 169606

Major fault: 0 Minor fault: 6364



Printing Logs
statHeadFound: 2351399
statHeadMissing: 428417
statStreamBufferHit: 11501346
statPrefetchEntryFound: 10118410
statCompactorMatch: 11161384
statStreamTrackerLookup: 14281162
statRecord: 3119778
statGetPointer: 2779816
statEnqueuePrefetch: 27976984
statPrefetchQueueIsFull: 671
StreamBufferHitRate: 0.805351
Regions' size: 2615
next_region_correct: 2526947
next_region_wrong: 590208
next_region_correct_prediction: 0.810658
statStreamBufferLookups: 142811620
statL1iLookups: 223815872
statCompactorLookups: 228498592
morteza: start

SHEET
mana_table_access_counter : 13238851
hobp_table_access_counter : 33717443
sab_access_counter : 21619756
srq_access_counter : 15775087

morteza: end
CPU 0 L1D next line prefetcher final stats

DRAM Statistics
 CHANNEL 0
 RQ ROW_BUFFER_HIT:      33337  ROW_BUFFER_MISS:     110431
 DBUS_CONGESTED:      58408
 WQ ROW_BUFFER_HIT:       4308  ROW_BUFFER_MISS:      13153  FULL:          0

 AVG_CONGESTED_CYCLE: 4

CPU 0 Branch Prediction Accuracy: 98.7418% MPKI: 2.47758 Average ROB Occupancy at Mispredict: 75.5937

Branch types
NOT_BRANCH: 40154100 80.3082%
BRANCH_DIRECT_JUMP: 817094 1.63419%
BRANCH_INDIRECT: 303787 0.607574%
BRANCH_CONDITIONAL: 7492103 14.9842%
BRANCH_DIRECT_CALL: 471777 0.943554%
BRANCH_INDIRECT_CALL: 144546 0.289092%
BRANCH_RETURN: 616324 1.23265%
BRANCH_OTHER: 0 0%

