Initialize SIGNATURE TABLE
ST_SET: 1
ST_WAY: 256
ST_TAG_BIT: 16
ST_TAG_MASK: ffff

Initialize PATTERN TABLE
PT_SET: 512
PT_WAY: 4
SIG_DELTA_BIT: 7
C_SIG_BIT: 4
C_DELTA_BIT: 4

Initialize PREFETCH FILTER
FILTER_SET: 1024
MANA initialize 
tds: 2 tdm: 2
size MANA SINGLE: 15.5 KB
size MANA NULTIPLE: 0 KB
size HOBPT: 0.703125 KB
size SRQ: 0.0644531 KB
size SABs: 0.0402832 KB
size prefetch queue: 0.453125 KB
total: 16.761 KB

*** ChampSim Multicore Out-of-Order Simulator ***

Warmup Instructions: 50000000
Simulation Instructions: 50000000
Number of CPUs: 1
LLC sets: 2048
LLC ways: 16
Off-chip DRAM Size: 4096 MB Channels: 1 Width: 64-bit Data Rate: 3200 MT/s

CPU 0 runs /home/mbaradaran/ChampSim/dpc3_traces/spec_gobmk_002.champsimtrace.xz
CPU 0 L1D next line prefetcher
Heartbeat CPU 0 instructions: 10000001 cycles: 3287520 heartbeat IPC: 3.04181 cumulative IPC: 3.04181 (Simulation time: 0 hr 1 min 23 sec) 
Heartbeat CPU 0 instructions: 20000000 cycles: 6619154 heartbeat IPC: 3.00153 cumulative IPC: 3.02153 (Simulation time: 0 hr 2 min 29 sec) 
Heartbeat CPU 0 instructions: 30000000 cycles: 9957170 heartbeat IPC: 2.99579 cumulative IPC: 3.0129 (Simulation time: 0 hr 3 min 34 sec) 
Heartbeat CPU 0 instructions: 40000000 cycles: 13266669 heartbeat IPC: 3.02161 cumulative IPC: 3.01507 (Simulation time: 0 hr 4 min 41 sec) 
Heartbeat CPU 0 instructions: 50000003 cycles: 16530261 heartbeat IPC: 3.06411 cumulative IPC: 3.02476 (Simulation time: 0 hr 5 min 45 sec) 

Warmup complete CPU 0 instructions: 50000003 cycles: 16530261 (Simulation time: 0 hr 5 min 45 sec) 

Heartbeat CPU 0 instructions: 60000003 cycles: 24169326 heartbeat IPC: 1.30906 cumulative IPC: 1.30906 (Simulation time: 0 hr 6 min 35 sec) 
Heartbeat CPU 0 instructions: 70000001 cycles: 31757760 heartbeat IPC: 1.31779 cumulative IPC: 1.31341 (Simulation time: 0 hr 7 min 22 sec) 
Heartbeat CPU 0 instructions: 80000002 cycles: 39213661 heartbeat IPC: 1.34122 cumulative IPC: 1.32255 (Simulation time: 0 hr 8 min 10 sec) 
Heartbeat CPU 0 instructions: 90000001 cycles: 46956302 heartbeat IPC: 1.29155 cumulative IPC: 1.31466 (Simulation time: 0 hr 8 min 55 sec) 
Heartbeat CPU 0 instructions: 100000003 cycles: 54973038 heartbeat IPC: 1.24739 cumulative IPC: 1.30063 (Simulation time: 0 hr 9 min 42 sec) 
Finished CPU 0 instructions: 50000000 cycles: 38442777 cumulative IPC: 1.30063 (Simulation time: 0 hr 9 min 42 sec) 

ChampSim completed all CPUs

Region of Interest Statistics

CPU 0 cumulative IPC: 1.30063 instructions: 50000000 cycles: 38442777

SHEET
IPC : 1.30063

L1D TOTAL     ACCESS:   17723318  HIT:   17600181  MISS:     123137
L1D LOAD      ACCESS:    6706303  HIT:    6672090  MISS:      34213
L1D RFO       ACCESS:    4390230  HIT:    4347548  MISS:      42682
L1D PREFETCH  ACCESS:    6626785  HIT:    6580543  MISS:      46242
L1D WRITEBACK ACCESS:          0  HIT:          0  MISS:          0
L1D PREFETCH  REQUESTED:    6708591  ISSUED:    6641203  USEFUL:      17180  USELESS:      29243
L1D AVERAGE MISS LATENCY: 50.3293 cycles
L1D

SHEET
L1D-total_access : 17723318
L1D-total_hit : 17600181
L1D-total_miss : 123137
L1D-load_access : 6706303
L1D-load_hit : 6672090
L1D-load_miss : 34213
L1D-rfo_access : 4390230
L1D-rfo_hit : 4347548
L1D-rfo_miss : 42682
L1D-prefetch_access : 6626785
L1D-prefetch_hit : 6580543
L1D-prefetch_miss : 46242
L1D-writeback_access : 0
L1D-writeback_hit : 0
L1D-writeback_miss : 0
L1D-prefetch_requested : 6708591
L1D-prefetch_issued : 6641203
L1D-prefetch_useful : 17180
L1D-prefetch_useless : 29243
L1D-Avg_miss_latency : 50.3293
L1D-Morteza_fill_l2_prefetches : 0

L1I TOTAL     ACCESS:   23522072  HIT:   21968172  MISS:    1553900
L1I LOAD      ACCESS:    8858733  HIT:    8574057  MISS:     284676
L1I RFO       ACCESS:          0  HIT:          0  MISS:          0
L1I PREFETCH  ACCESS:   14663339  HIT:   13394115  MISS:    1269224
L1I WRITEBACK ACCESS:          0  HIT:          0  MISS:          0
L1I PREFETCH  REQUESTED:   16989620  ISSUED:   16716146  USEFUL:     806824  USELESS:     462392
L1I AVERAGE MISS LATENCY: 14.1163 cycles
L1I

SHEET
L1I-total_access : 23522072
L1I-total_hit : 21968172
L1I-total_miss : 1553900
L1I-load_access : 8858733
L1I-load_hit : 8574057
L1I-load_miss : 284676
L1I-rfo_access : 0
L1I-rfo_hit : 0
L1I-rfo_miss : 0
L1I-prefetch_access : 14663339
L1I-prefetch_hit : 13394115
L1I-prefetch_miss : 1269224
L1I-writeback_access : 0
L1I-writeback_hit : 0
L1I-writeback_miss : 0
L1I-prefetch_requested : 16989620
L1I-prefetch_issued : 16716146
L1I-prefetch_useful : 806824
L1I-prefetch_useless : 462392
L1I-Avg_miss_latency : 14.1163
L1I-Morteza_fill_l2_prefetches : 0

L2C TOTAL     ACCESS:    2505184  HIT:    2467696  MISS:      37488
L2C LOAD      ACCESS:     254873  HIT:     240947  MISS:      13926
L2C RFO       ACCESS:      42579  HIT:      39843  MISS:       2736
L2C PREFETCH  ACCESS:    2133523  HIT:    2112823  MISS:      20700
L2C WRITEBACK ACCESS:      74209  HIT:      74083  MISS:        126
L2C PREFETCH  REQUESTED:    1543899  ISSUED:    1543882  USEFUL:       2257  USELESS:      18736
L2C AVERAGE MISS LATENCY: 125.279 cycles
L2C

SHEET
L2C-total_access : 2505184
L2C-total_hit : 2467696
L2C-total_miss : 37488
L2C-load_access : 254873
L2C-load_hit : 240947
L2C-load_miss : 13926
L2C-rfo_access : 42579
L2C-rfo_hit : 39843
L2C-rfo_miss : 2736
L2C-prefetch_access : 2133523
L2C-prefetch_hit : 2112823
L2C-prefetch_miss : 20700
L2C-writeback_access : 74209
L2C-writeback_hit : 74083
L2C-writeback_miss : 126
L2C-prefetch_requested : 1543899
L2C-prefetch_issued : 1543882
L2C-prefetch_useful : 2257
L2C-prefetch_useless : 18736
L2C-Avg_miss_latency : 125.279
L2C-Morteza_fill_l2_prefetches : 761144

LLC TOTAL     ACCESS:     151868  HIT:     118024  MISS:      33844
LLC LOAD      ACCESS:      13926  HIT:       5228  MISS:       8698
LLC RFO       ACCESS:       2736  HIT:       1128  MISS:       1608
LLC PREFETCH  ACCESS:     117237  HIT:      94264  MISS:      22973
LLC WRITEBACK ACCESS:      17969  HIT:      17404  MISS:        565
LLC PREFETCH  REQUESTED:          0  ISSUED:          0  USEFUL:       2326  USELESS:      20137
LLC AVERAGE MISS LATENCY: 184.11 cycles
LLC

SHEET
LLC-total_access : 151868
LLC-total_hit : 118024
LLC-total_miss : 33844
LLC-load_access : 13926
LLC-load_hit : 5228
LLC-load_miss : 8698
LLC-rfo_access : 2736
LLC-rfo_hit : 1128
LLC-rfo_miss : 1608
LLC-prefetch_access : 117237
LLC-prefetch_hit : 94264
LLC-prefetch_miss : 22973
LLC-writeback_access : 17969
LLC-writeback_hit : 17404
LLC-writeback_miss : 565
LLC-prefetch_requested : 0
LLC-prefetch_issued : 0
LLC-prefetch_useful : 2326
LLC-prefetch_useless : 20137
LLC-Avg_miss_latency : 184.11
LLC-Morteza_fill_l2_prefetches : 82164

Major fault: 0 Minor fault: 2776



Printing Logs
statHeadFound: 2486936
statHeadMissing: 941831
statStreamBufferHit: 9393226
statPrefetchEntryFound: 8799183
statCompactorMatch: 10813758
statStreamTrackerLookup: 12821993
statRecord: 2008235
statGetPointer: 3428767
statEnqueuePrefetch: 32170735
statPrefetchQueueIsFull: 91630
StreamBufferHitRate: 0.732587
Regions' size: 3454
next_region_correct: 1073716
next_region_wrong: 931057
next_region_correct_prediction: 0.53558
statStreamBufferLookups: 128219930
statL1iLookups: 257365880
statCompactorLookups: 205151888
morteza: start

SHEET
mana_table_access_counter : 10899040
hobp_table_access_counter : 30638819
sab_access_counter : 18192409
srq_access_counter : 13847763

morteza: end
CPU 0 L1D next line prefetcher final stats

DRAM Statistics
 CHANNEL 0
 RQ ROW_BUFFER_HIT:       2586  ROW_BUFFER_MISS:      30692
 DBUS_CONGESTED:      17757
 WQ ROW_BUFFER_HIT:        743  ROW_BUFFER_MISS:      13426  FULL:          0

 AVG_CONGESTED_CYCLE: 4

CPU 0 Branch Prediction Accuracy: 93.9974% MPKI: 10.2447 Average ROB Occupancy at Mispredict: 38.1509

Branch types
NOT_BRANCH: 41466063 82.9321%
BRANCH_DIRECT_JUMP: 464313 0.928626%
BRANCH_INDIRECT: 32 6.4e-05%
BRANCH_CONDITIONAL: 7069456 14.1389%
BRANCH_DIRECT_CALL: 499587 0.999174%
BRANCH_INDIRECT_CALL: 342 0.000684%
BRANCH_RETURN: 499906 0.999812%
BRANCH_OTHER: 0 0%

