Initialize SIGNATURE TABLE
ST_SET: 1
ST_WAY: 256
ST_TAG_BIT: 16
ST_TAG_MASK: ffff

Initialize PATTERN TABLE
PT_SET: 512
PT_WAY: 4
SIG_DELTA_BIT: 7
C_SIG_BIT: 4
C_DELTA_BIT: 4

Initialize PREFETCH FILTER
FILTER_SET: 1024
MANA initialize 
tds: 2 tdm: 2
size MANA SINGLE: 15.5 KB
size MANA NULTIPLE: 0 KB
size HOBPT: 0.703125 KB
size SRQ: 0.0644531 KB
size SABs: 0.0402832 KB
size prefetch queue: 0.453125 KB
total: 16.761 KB

*** ChampSim Multicore Out-of-Order Simulator ***

Warmup Instructions: 50000000
Simulation Instructions: 50000000
Number of CPUs: 1
LLC sets: 2048
LLC ways: 16
Off-chip DRAM Size: 4096 MB Channels: 1 Width: 64-bit Data Rate: 3200 MT/s

CPU 0 runs /home/mbaradaran/ChampSim/dpc3_traces/spec_gobmk_001.champsimtrace.xz
CPU 0 L1D next line prefetcher
Heartbeat CPU 0 instructions: 10000003 cycles: 3507023 heartbeat IPC: 2.85142 cumulative IPC: 2.85142 (Simulation time: 0 hr 1 min 15 sec) 
Heartbeat CPU 0 instructions: 20000002 cycles: 6987427 heartbeat IPC: 2.87323 cumulative IPC: 2.86228 (Simulation time: 0 hr 2 min 21 sec) 
Heartbeat CPU 0 instructions: 30000002 cycles: 10506778 heartbeat IPC: 2.84143 cumulative IPC: 2.8553 (Simulation time: 0 hr 3 min 26 sec) 
Heartbeat CPU 0 instructions: 40000001 cycles: 14026057 heartbeat IPC: 2.84149 cumulative IPC: 2.85184 (Simulation time: 0 hr 4 min 31 sec) 
Heartbeat CPU 0 instructions: 50000001 cycles: 17566202 heartbeat IPC: 2.82474 cumulative IPC: 2.84638 (Simulation time: 0 hr 5 min 34 sec) 

Warmup complete CPU 0 instructions: 50000001 cycles: 17566202 (Simulation time: 0 hr 5 min 34 sec) 

Heartbeat CPU 0 instructions: 60000000 cycles: 26492617 heartbeat IPC: 1.12027 cumulative IPC: 1.12027 (Simulation time: 0 hr 6 min 24 sec) 
Heartbeat CPU 0 instructions: 70000002 cycles: 35110030 heartbeat IPC: 1.16044 cumulative IPC: 1.14 (Simulation time: 0 hr 7 min 14 sec) 
Heartbeat CPU 0 instructions: 80000003 cycles: 44085521 heartbeat IPC: 1.11415 cumulative IPC: 1.13125 (Simulation time: 0 hr 8 min 3 sec) 
Heartbeat CPU 0 instructions: 90000001 cycles: 52714209 heartbeat IPC: 1.15892 cumulative IPC: 1.13804 (Simulation time: 0 hr 8 min 52 sec) 
Heartbeat CPU 0 instructions: 100000000 cycles: 61698714 heartbeat IPC: 1.11303 cumulative IPC: 1.13295 (Simulation time: 0 hr 9 min 41 sec) 
Finished CPU 0 instructions: 50000002 cycles: 44132518 cumulative IPC: 1.13295 (Simulation time: 0 hr 9 min 41 sec) 

ChampSim completed all CPUs

Region of Interest Statistics

CPU 0 cumulative IPC: 1.13295 instructions: 50000002 cycles: 44132518

SHEET
IPC : 1.13295

L1D TOTAL     ACCESS:   18052381  HIT:   17672841  MISS:     379540
L1D LOAD      ACCESS:    7244017  HIT:    7109038  MISS:     134979
L1D RFO       ACCESS:    3703537  HIT:    3599007  MISS:     104530
L1D PREFETCH  ACCESS:    7104827  HIT:    6964796  MISS:     140031
L1D WRITEBACK ACCESS:          0  HIT:          0  MISS:          0
L1D PREFETCH  REQUESTED:    7249170  ISSUED:    7166440  USEFUL:      45345  USELESS:      94691
L1D AVERAGE MISS LATENCY: 33.6223 cycles
L1D

SHEET
L1D-total_access : 18052381
L1D-total_hit : 17672841
L1D-total_miss : 379540
L1D-load_access : 7244017
L1D-load_hit : 7109038
L1D-load_miss : 134979
L1D-rfo_access : 3703537
L1D-rfo_hit : 3599007
L1D-rfo_miss : 104530
L1D-prefetch_access : 7104827
L1D-prefetch_hit : 6964796
L1D-prefetch_miss : 140031
L1D-writeback_access : 0
L1D-writeback_hit : 0
L1D-writeback_miss : 0
L1D-prefetch_requested : 7249170
L1D-prefetch_issued : 7166440
L1D-prefetch_useful : 45345
L1D-prefetch_useless : 94691
L1D-Avg_miss_latency : 33.6223
L1D-Morteza_fill_l2_prefetches : 0

L1I TOTAL     ACCESS:   20028678  HIT:   19023281  MISS:    1005397
L1I LOAD      ACCESS:    8959388  HIT:    8756724  MISS:     202664
L1I RFO       ACCESS:          0  HIT:          0  MISS:          0
L1I PREFETCH  ACCESS:   11069290  HIT:   10266557  MISS:     802733
L1I WRITEBACK ACCESS:          0  HIT:          0  MISS:          0
L1I PREFETCH  REQUESTED:   12853663  ISSUED:   12695045  USEFUL:     528484  USELESS:     274223
L1I AVERAGE MISS LATENCY: 14.5716 cycles
L1I

SHEET
L1I-total_access : 20028678
L1I-total_hit : 19023281
L1I-total_miss : 1005397
L1I-load_access : 8959388
L1I-load_hit : 8756724
L1I-load_miss : 202664
L1I-rfo_access : 0
L1I-rfo_hit : 0
L1I-rfo_miss : 0
L1I-prefetch_access : 11069290
L1I-prefetch_hit : 10266557
L1I-prefetch_miss : 802733
L1I-writeback_access : 0
L1I-writeback_hit : 0
L1I-writeback_miss : 0
L1I-prefetch_requested : 12853663
L1I-prefetch_issued : 12695045
L1I-prefetch_useful : 528484
L1I-prefetch_useless : 274223
L1I-Avg_miss_latency : 14.5716
L1I-Morteza_fill_l2_prefetches : 0

L2C TOTAL     ACCESS:    2109353  HIT:    1985289  MISS:     124064
L2C LOAD      ACCESS:     272269  HIT:     236617  MISS:      35652
L2C RFO       ACCESS:     104212  HIT:      70283  MISS:      33929
L2C PREFETCH  ACCESS:    1593568  HIT:    1539156  MISS:      54412
L2C WRITEBACK ACCESS:     139304  HIT:     139233  MISS:         71
L2C PREFETCH  REQUESTED:    1226755  ISSUED:    1226657  USEFUL:       4717  USELESS:      49930
L2C AVERAGE MISS LATENCY: 65.6782 cycles
L2C

SHEET
L2C-total_access : 2109353
L2C-total_hit : 1985289
L2C-total_miss : 124064
L2C-load_access : 272269
L2C-load_hit : 236617
L2C-load_miss : 35652
L2C-rfo_access : 104212
L2C-rfo_hit : 70283
L2C-rfo_miss : 33929
L2C-prefetch_access : 1593568
L2C-prefetch_hit : 1539156
L2C-prefetch_miss : 54412
L2C-writeback_access : 139304
L2C-writeback_hit : 139233
L2C-writeback_miss : 71
L2C-prefetch_requested : 1226755
L2C-prefetch_issued : 1226657
L2C-prefetch_useful : 4717
L2C-prefetch_useless : 49930
L2C-Avg_miss_latency : 65.6782
L2C-Morteza_fill_l2_prefetches : 593658

LLC TOTAL     ACCESS:     296998  HIT:     260612  MISS:      36386
LLC LOAD      ACCESS:      35648  HIT:      27350  MISS:       8298
LLC RFO       ACCESS:      33929  HIT:      26950  MISS:       6979
LLC PREFETCH  ACCESS:     182689  HIT:     161875  MISS:      20814
LLC WRITEBACK ACCESS:      44732  HIT:      44437  MISS:        295
LLC PREFETCH  REQUESTED:          0  ISSUED:          0  USEFUL:       1381  USELESS:      17890
LLC AVERAGE MISS LATENCY: 179.019 cycles
LLC

SHEET
LLC-total_access : 296998
LLC-total_hit : 260612
LLC-total_miss : 36386
LLC-load_access : 35648
LLC-load_hit : 27350
LLC-load_miss : 8298
LLC-rfo_access : 33929
LLC-rfo_hit : 26950
LLC-rfo_miss : 6979
LLC-prefetch_access : 182689
LLC-prefetch_hit : 161875
LLC-prefetch_miss : 20814
LLC-writeback_access : 44732
LLC-writeback_hit : 44437
LLC-writeback_miss : 295
LLC-prefetch_requested : 0
LLC-prefetch_issued : 0
LLC-prefetch_useful : 1381
LLC-prefetch_useless : 17890
LLC-Avg_miss_latency : 179.019
LLC-Morteza_fill_l2_prefetches : 118501

Major fault: 0 Minor fault: 4156



Printing Logs
statHeadFound: 1902355
statHeadMissing: 1432586
statStreamBufferHit: 9485124
statPrefetchEntryFound: 6782243
statCompactorMatch: 11388244
statStreamTrackerLookup: 12820065
statRecord: 1431821
statGetPointer: 3334941
statEnqueuePrefetch: 24290893
statPrefetchQueueIsFull: 45244
StreamBufferHitRate: 0.739866
Regions' size: 3350
next_region_correct: 756729
next_region_wrong: 671734
next_region_correct_prediction: 0.529751
statStreamBufferLookups: 128200650
statL1iLookups: 194327144
statCompactorLookups: 205121040
morteza: start

SHEET
mana_table_access_counter : 8259300
hobp_table_access_counter : 25894534
sab_access_counter : 16267367
srq_access_counter : 13119907

morteza: end
CPU 0 L1D next line prefetcher final stats

DRAM Statistics
 CHANNEL 0
 RQ ROW_BUFFER_HIT:       5713  ROW_BUFFER_MISS:      30378
 DBUS_CONGESTED:      19568
 WQ ROW_BUFFER_HIT:       1695  ROW_BUFFER_MISS:      14691  FULL:          0

 AVG_CONGESTED_CYCLE: 4

CPU 0 Branch Prediction Accuracy: 94.7729% MPKI: 9.72684 Average ROB Occupancy at Mispredict: 52.5877

Branch types
NOT_BRANCH: 40695430 81.3909%
BRANCH_DIRECT_JUMP: 422108 0.844216%
BRANCH_INDIRECT: 65 0.00013%
BRANCH_CONDITIONAL: 8105007 16.21%
BRANCH_DIRECT_CALL: 374913 0.749826%
BRANCH_INDIRECT_CALL: 13657 0.027314%
BRANCH_RETURN: 388556 0.777112%
BRANCH_OTHER: 0 0%

