Initialize SIGNATURE TABLE
ST_SET: 1
ST_WAY: 256
ST_TAG_BIT: 16
ST_TAG_MASK: ffff

Initialize PATTERN TABLE
PT_SET: 512
PT_WAY: 4
SIG_DELTA_BIT: 7
C_SIG_BIT: 4
C_DELTA_BIT: 4

Initialize PREFETCH FILTER
FILTER_SET: 1024
MANA initialize 
tds: 2 tdm: 2
size MANA SINGLE: 15.5 KB
size MANA NULTIPLE: 0 KB
size HOBPT: 0.703125 KB
size SRQ: 0.0644531 KB
size SABs: 0.0402832 KB
size prefetch queue: 0.453125 KB
total: 16.761 KB

*** ChampSim Multicore Out-of-Order Simulator ***

Warmup Instructions: 50000000
Simulation Instructions: 50000000
Number of CPUs: 1
LLC sets: 2048
LLC ways: 16
Off-chip DRAM Size: 4096 MB Channels: 1 Width: 64-bit Data Rate: 3200 MT/s

CPU 0 runs /home/mbaradaran/ChampSim/dpc3_traces/spec_gcc_003.champsimtrace.xz
CPU 0 L1D next line prefetcher
Heartbeat CPU 0 instructions: 10000001 cycles: 3485981 heartbeat IPC: 2.86863 cumulative IPC: 2.86863 (Simulation time: 0 hr 1 min 19 sec) 
Heartbeat CPU 0 instructions: 20000000 cycles: 6955855 heartbeat IPC: 2.88195 cumulative IPC: 2.87528 (Simulation time: 0 hr 2 min 35 sec) 
Heartbeat CPU 0 instructions: 30000002 cycles: 10399026 heartbeat IPC: 2.9043 cumulative IPC: 2.88489 (Simulation time: 0 hr 3 min 42 sec) 
Heartbeat CPU 0 instructions: 40000000 cycles: 13865855 heartbeat IPC: 2.88448 cumulative IPC: 2.88478 (Simulation time: 0 hr 4 min 53 sec) 
Heartbeat CPU 0 instructions: 50000001 cycles: 17180471 heartbeat IPC: 3.01694 cumulative IPC: 2.91028 (Simulation time: 0 hr 5 min 56 sec) 

Warmup complete CPU 0 instructions: 50000001 cycles: 17180471 (Simulation time: 0 hr 5 min 56 sec) 

Heartbeat CPU 0 instructions: 60000000 cycles: 57841494 heartbeat IPC: 0.245936 cumulative IPC: 0.245936 (Simulation time: 0 hr 8 min 29 sec) 
Heartbeat CPU 0 instructions: 70000000 cycles: 101527676 heartbeat IPC: 0.228905 cumulative IPC: 0.237115 (Simulation time: 0 hr 11 min 4 sec) 
Heartbeat CPU 0 instructions: 80000002 cycles: 145958004 heartbeat IPC: 0.225072 cumulative IPC: 0.23296 (Simulation time: 0 hr 13 min 35 sec) 
Heartbeat CPU 0 instructions: 90000002 cycles: 183505307 heartbeat IPC: 0.266331 cumulative IPC: 0.240493 (Simulation time: 0 hr 15 min 47 sec) 
Heartbeat CPU 0 instructions: 100000001 cycles: 230368885 heartbeat IPC: 0.213385 cumulative IPC: 0.234534 (Simulation time: 0 hr 18 min 24 sec) 
Finished CPU 0 instructions: 50000000 cycles: 213188414 cumulative IPC: 0.234534 (Simulation time: 0 hr 18 min 24 sec) 

ChampSim completed all CPUs

Region of Interest Statistics

CPU 0 cumulative IPC: 0.234534 instructions: 50000000 cycles: 213188414

SHEET
IPC : 0.234534

L1D TOTAL     ACCESS:   17078034  HIT:   11353598  MISS:    5724436
L1D LOAD      ACCESS:    4669765  HIT:    4287103  MISS:     382662
L1D RFO       ACCESS:    8224039  HIT:    3172335  MISS:    5051704
L1D PREFETCH  ACCESS:    4184230  HIT:    3894160  MISS:     290070
L1D WRITEBACK ACCESS:          0  HIT:          0  MISS:          0
L1D PREFETCH  REQUESTED:    4688588  ISSUED:    4630690  USEFUL:     152559  USELESS:     137691
L1D AVERAGE MISS LATENCY: 503.131 cycles
L1D

SHEET
L1D-total_access : 17078034
L1D-total_hit : 11353598
L1D-total_miss : 5724436
L1D-load_access : 4669765
L1D-load_hit : 4287103
L1D-load_miss : 382662
L1D-rfo_access : 8224039
L1D-rfo_hit : 3172335
L1D-rfo_miss : 5051704
L1D-prefetch_access : 4184230
L1D-prefetch_hit : 3894160
L1D-prefetch_miss : 290070
L1D-writeback_access : 0
L1D-writeback_hit : 0
L1D-writeback_miss : 0
L1D-prefetch_requested : 4688588
L1D-prefetch_issued : 4630690
L1D-prefetch_useful : 152559
L1D-prefetch_useless : 137691
L1D-Avg_miss_latency : 503.131
L1D-Morteza_fill_l2_prefetches : 0

L1I TOTAL     ACCESS:   18945797  HIT:   17754386  MISS:    1191411
L1I LOAD      ACCESS:   11265074  HIT:   10936567  MISS:     328507
L1I RFO       ACCESS:          0  HIT:          0  MISS:          0
L1I PREFETCH  ACCESS:    7680723  HIT:    6817819  MISS:     862904
L1I WRITEBACK ACCESS:          0  HIT:          0  MISS:          0
L1I PREFETCH  REQUESTED:    9547253  ISSUED:    9425062  USEFUL:     538390  USELESS:     324508
L1I AVERAGE MISS LATENCY: 50.3059 cycles
L1I

SHEET
L1I-total_access : 18945797
L1I-total_hit : 17754386
L1I-total_miss : 1191411
L1I-load_access : 11265074
L1I-load_hit : 10936567
L1I-load_miss : 328507
L1I-rfo_access : 0
L1I-rfo_hit : 0
L1I-rfo_miss : 0
L1I-prefetch_access : 7680723
L1I-prefetch_hit : 6817819
L1I-prefetch_miss : 862904
L1I-writeback_access : 0
L1I-writeback_hit : 0
L1I-writeback_miss : 0
L1I-prefetch_requested : 9547253
L1I-prefetch_issued : 9425062
L1I-prefetch_useful : 538390
L1I-prefetch_useless : 324508
L1I-Avg_miss_latency : 50.3059
L1I-Morteza_fill_l2_prefetches : 0

L2C TOTAL     ACCESS:   12446779  HIT:    6416551  MISS:    6030228
L2C LOAD      ACCESS:     437477  HIT:     185049  MISS:     252428
L2C RFO       ACCESS:    5049884  HIT:       6479  MISS:    5043405
L2C PREFETCH  ACCESS:    1801509  HIT:    1067294  MISS:     734215
L2C WRITEBACK ACCESS:    5157909  HIT:    5157729  MISS:        180
L2C PREFETCH  REQUESTED:    2102208  ISSUED:    2102104  USEFUL:      61560  USELESS:     669435
L2C AVERAGE MISS LATENCY: 474.477 cycles
L2C

SHEET
L2C-total_access : 12446779
L2C-total_hit : 6416551
L2C-total_miss : 6030228
L2C-load_access : 437477
L2C-load_hit : 185049
L2C-load_miss : 252428
L2C-rfo_access : 5049884
L2C-rfo_hit : 6479
L2C-rfo_miss : 5043405
L2C-prefetch_access : 1801509
L2C-prefetch_hit : 1067294
L2C-prefetch_miss : 734215
L2C-writeback_access : 5157909
L2C-writeback_hit : 5157729
L2C-writeback_miss : 180
L2C-prefetch_requested : 2102208
L2C-prefetch_issued : 2102104
L2C-prefetch_useful : 61560
L2C-prefetch_useless : 669435
L2C-Avg_miss_latency : 474.477
L2C-Morteza_fill_l2_prefetches : 331995

LLC TOTAL     ACCESS:   11952165  HIT:    7218114  MISS:    4734051
LLC LOAD      ACCESS:     252407  HIT:     184721  MISS:      67686
LLC RFO       ACCESS:    5043405  HIT:     621547  MISS:    4421858
LLC PREFETCH  ACCESS:    1522405  HIT:    1277898  MISS:     244507
LLC WRITEBACK ACCESS:    5133948  HIT:    5133948  MISS:          0
LLC PREFETCH  REQUESTED:          0  ISSUED:          0  USEFUL:      20226  USELESS:     223974
LLC AVERAGE MISS LATENCY: 573.304 cycles
LLC

SHEET
LLC-total_access : 11952165
LLC-total_hit : 7218114
LLC-total_miss : 4734051
LLC-load_access : 252407
LLC-load_hit : 184721
LLC-load_miss : 67686
LLC-rfo_access : 5043405
LLC-rfo_hit : 621547
LLC-rfo_miss : 4421858
LLC-prefetch_access : 1522405
LLC-prefetch_hit : 1277898
LLC-prefetch_miss : 244507
LLC-writeback_access : 5133948
LLC-writeback_hit : 5133948
LLC-writeback_miss : 0
LLC-prefetch_requested : 0
LLC-prefetch_issued : 0
LLC-prefetch_useful : 20226
LLC-prefetch_useless : 223974
LLC-Avg_miss_latency : 573.304
LLC-Morteza_fill_l2_prefetches : 779841

Major fault: 0 Minor fault: 2817



Printing Logs
statHeadFound: 1600936
statHeadMissing: 2597618
statStreamBufferHit: 5763831
statPrefetchEntryFound: 5811010
statCompactorMatch: 8671725
statStreamTrackerLookup: 9962385
statRecord: 1290660
statGetPointer: 4198554
statEnqueuePrefetch: 17011774
statPrefetchQueueIsFull: 46354
StreamBufferHitRate: 0.578559
Regions' size: 1618
next_region_correct: 744013
next_region_wrong: 545021
next_region_correct_prediction: 0.577186
statStreamBufferLookups: 99623850
statL1iLookups: 136094192
statCompactorLookups: 159398160
morteza: start

SHEET
mana_table_access_counter : 7148016
hobp_table_access_counter : 27814227
sab_access_counter : 11574841
srq_access_counter : 9647398

morteza: end
CPU 0 L1D next line prefetcher final stats

DRAM Statistics
 CHANNEL 0
 RQ ROW_BUFFER_HIT:    1430699  ROW_BUFFER_MISS:    3303313
 DBUS_CONGESTED:    8223632
 WQ ROW_BUFFER_HIT:    1194504  ROW_BUFFER_MISS:    3256367  FULL:          0

 AVG_CONGESTED_CYCLE: 6

CPU 0 Branch Prediction Accuracy: 99.665% MPKI: 0.78342 Average ROB Occupancy at Mispredict: 99.421

Branch types
NOT_BRANCH: 38305861 76.6117%
BRANCH_DIRECT_JUMP: 384281 0.768562%
BRANCH_INDIRECT: 71949 0.143898%
BRANCH_CONDITIONAL: 9879826 19.7597%
BRANCH_DIRECT_CALL: 650586 1.30117%
BRANCH_INDIRECT_CALL: 28456 0.056912%
BRANCH_RETURN: 679046 1.35809%
BRANCH_OTHER: 0 0%

