Initialize SIGNATURE TABLE
ST_SET: 1
ST_WAY: 256
ST_TAG_BIT: 16
ST_TAG_MASK: ffff

Initialize PATTERN TABLE
PT_SET: 512
PT_WAY: 4
SIG_DELTA_BIT: 7
C_SIG_BIT: 4
C_DELTA_BIT: 4

Initialize PREFETCH FILTER
FILTER_SET: 1024
MANA initialize 
tds: 2 tdm: 2
size MANA SINGLE: 15.5 KB
size MANA NULTIPLE: 0 KB
size HOBPT: 0.703125 KB
size SRQ: 0.0644531 KB
size SABs: 0.0402832 KB
size prefetch queue: 0.453125 KB
total: 16.761 KB

*** ChampSim Multicore Out-of-Order Simulator ***

Warmup Instructions: 50000000
Simulation Instructions: 50000000
Number of CPUs: 1
LLC sets: 2048
LLC ways: 16
Off-chip DRAM Size: 4096 MB Channels: 1 Width: 64-bit Data Rate: 3200 MT/s

CPU 0 runs /home/mbaradaran/ChampSim/dpc3_traces/spec_gcc_002.champsimtrace.xz
CPU 0 L1D next line prefetcher
Heartbeat CPU 0 instructions: 10000002 cycles: 3545914 heartbeat IPC: 2.82015 cumulative IPC: 2.82015 (Simulation time: 0 hr 1 min 18 sec) 
Heartbeat CPU 0 instructions: 20000000 cycles: 7118749 heartbeat IPC: 2.7989 cumulative IPC: 2.80948 (Simulation time: 0 hr 2 min 27 sec) 
Heartbeat CPU 0 instructions: 30000000 cycles: 10761299 heartbeat IPC: 2.74533 cumulative IPC: 2.78777 (Simulation time: 0 hr 3 min 46 sec) 
Heartbeat CPU 0 instructions: 40000000 cycles: 14310989 heartbeat IPC: 2.81715 cumulative IPC: 2.79505 (Simulation time: 0 hr 4 min 56 sec) 
Heartbeat CPU 0 instructions: 50000002 cycles: 17772335 heartbeat IPC: 2.88905 cumulative IPC: 2.81336 (Simulation time: 0 hr 6 min 5 sec) 

Warmup complete CPU 0 instructions: 50000002 cycles: 17772335 (Simulation time: 0 hr 6 min 5 sec) 

Heartbeat CPU 0 instructions: 60000001 cycles: 57925107 heartbeat IPC: 0.249049 cumulative IPC: 0.249049 (Simulation time: 0 hr 8 min 35 sec) 
Heartbeat CPU 0 instructions: 70000001 cycles: 90072552 heartbeat IPC: 0.311067 cumulative IPC: 0.276624 (Simulation time: 0 hr 10 min 48 sec) 
Heartbeat CPU 0 instructions: 80000002 cycles: 139309420 heartbeat IPC: 0.2031 cumulative IPC: 0.246838 (Simulation time: 0 hr 13 min 32 sec) 
Heartbeat CPU 0 instructions: 90000001 cycles: 184183450 heartbeat IPC: 0.222846 cumulative IPC: 0.240369 (Simulation time: 0 hr 16 min 3 sec) 
Heartbeat CPU 0 instructions: 100000000 cycles: 216404276 heartbeat IPC: 0.310358 cumulative IPC: 0.251722 (Simulation time: 0 hr 18 min 5 sec) 
Finished CPU 0 instructions: 50000002 cycles: 198631949 cumulative IPC: 0.251722 (Simulation time: 0 hr 18 min 5 sec) 

ChampSim completed all CPUs

Region of Interest Statistics

CPU 0 cumulative IPC: 0.251722 instructions: 50000002 cycles: 198631949

SHEET
IPC : 0.251722

L1D TOTAL     ACCESS:   18364251  HIT:   13130519  MISS:    5233732
L1D LOAD      ACCESS:    6418329  HIT:    5360874  MISS:    1057455
L1D RFO       ACCESS:    7037767  HIT:    3436984  MISS:    3600783
L1D PREFETCH  ACCESS:    4908155  HIT:    4332661  MISS:     575494
L1D WRITEBACK ACCESS:          0  HIT:          0  MISS:          0
L1D PREFETCH  REQUESTED:    6438971  ISSUED:    6370676  USEFUL:     415694  USELESS:     160016
L1D AVERAGE MISS LATENCY: 333.813 cycles
L1D

SHEET
L1D-total_access : 18364251
L1D-total_hit : 13130519
L1D-total_miss : 5233732
L1D-load_access : 6418329
L1D-load_hit : 5360874
L1D-load_miss : 1057455
L1D-rfo_access : 7037767
L1D-rfo_hit : 3436984
L1D-rfo_miss : 3600783
L1D-prefetch_access : 4908155
L1D-prefetch_hit : 4332661
L1D-prefetch_miss : 575494
L1D-writeback_access : 0
L1D-writeback_hit : 0
L1D-writeback_miss : 0
L1D-prefetch_requested : 6438971
L1D-prefetch_issued : 6370676
L1D-prefetch_useful : 415694
L1D-prefetch_useless : 160016
L1D-Avg_miss_latency : 333.813
L1D-Morteza_fill_l2_prefetches : 0

L1I TOTAL     ACCESS:   19915211  HIT:   18949408  MISS:     965803
L1I LOAD      ACCESS:   12080403  HIT:   11820744  MISS:     259659
L1I RFO       ACCESS:          0  HIT:          0  MISS:          0
L1I PREFETCH  ACCESS:    7834808  HIT:    7128664  MISS:     706144
L1I WRITEBACK ACCESS:          0  HIT:          0  MISS:          0
L1I PREFETCH  REQUESTED:    9462574  ISSUED:    9359754  USEFUL:     443863  USELESS:     262265
L1I AVERAGE MISS LATENCY: 55.9653 cycles
L1I

SHEET
L1I-total_access : 19915211
L1I-total_hit : 18949408
L1I-total_miss : 965803
L1I-load_access : 12080403
L1I-load_hit : 11820744
L1I-load_miss : 259659
L1I-rfo_access : 0
L1I-rfo_hit : 0
L1I-rfo_miss : 0
L1I-prefetch_access : 7834808
L1I-prefetch_hit : 7128664
L1I-prefetch_miss : 706144
L1I-writeback_access : 0
L1I-writeback_hit : 0
L1I-writeback_miss : 0
L1I-prefetch_requested : 9462574
L1I-prefetch_issued : 9359754
L1I-prefetch_useful : 443863
L1I-prefetch_useless : 262265
L1I-Avg_miss_latency : 55.9653
L1I-Morteza_fill_l2_prefetches : 0

L2C TOTAL     ACCESS:   10352739  HIT:    5059043  MISS:    5293696
L2C LOAD      ACCESS:     432894  HIT:     220751  MISS:     212143
L2C RFO       ACCESS:    3599152  HIT:      12457  MISS:    3586695
L2C PREFETCH  ACCESS:    2595175  HIT:    1100419  MISS:    1494756
L2C WRITEBACK ACCESS:    3725518  HIT:    3725416  MISS:        102
L2C PREFETCH  REQUESTED:    3122877  ISSUED:    3122643  USEFUL:      49676  USELESS:    1445201
L2C AVERAGE MISS LATENCY: 344.656 cycles
L2C

SHEET
L2C-total_access : 10352739
L2C-total_hit : 5059043
L2C-total_miss : 5293696
L2C-load_access : 432894
L2C-load_hit : 220751
L2C-load_miss : 212143
L2C-rfo_access : 3599152
L2C-rfo_hit : 12457
L2C-rfo_miss : 3586695
L2C-prefetch_access : 2595175
L2C-prefetch_hit : 1100419
L2C-prefetch_miss : 1494756
L2C-writeback_access : 3725518
L2C-writeback_hit : 3725416
L2C-writeback_miss : 102
L2C-prefetch_requested : 3122877
L2C-prefetch_issued : 3122643
L2C-prefetch_useful : 49676
L2C-prefetch_useless : 1445201
L2C-Avg_miss_latency : 344.656
L2C-Morteza_fill_l2_prefetches : 331016

LLC TOTAL     ACCESS:    9969806  HIT:    6119220  MISS:    3850586
LLC LOAD      ACCESS:     211970  HIT:     125722  MISS:      86248
LLC RFO       ACCESS:    3586696  HIT:     602235  MISS:    2984461
LLC PREFETCH  ACCESS:    2504895  HIT:    1725018  MISS:     779877
LLC WRITEBACK ACCESS:    3666245  HIT:    3666245  MISS:          0
LLC PREFETCH  REQUESTED:          0  ISSUED:          0  USEFUL:     152127  USELESS:     622957
LLC AVERAGE MISS LATENCY: 455.007 cycles
LLC

SHEET
LLC-total_access : 9969806
LLC-total_hit : 6119220
LLC-total_miss : 3850586
LLC-load_access : 211970
LLC-load_hit : 125722
LLC-load_miss : 86248
LLC-rfo_access : 3586696
LLC-rfo_hit : 602235
LLC-rfo_miss : 2984461
LLC-prefetch_access : 2504895
LLC-prefetch_hit : 1725018
LLC-prefetch_miss : 779877
LLC-writeback_access : 3666245
LLC-writeback_hit : 3666245
LLC-writeback_miss : 0
LLC-prefetch_requested : 0
LLC-prefetch_issued : 0
LLC-prefetch_useful : 152127
LLC-prefetch_useless : 622957
LLC-Avg_miss_latency : 455.007
LLC-Morteza_fill_l2_prefetches : 962230

Major fault: 0 Minor fault: 4152



Printing Logs
statHeadFound: 1689559
statHeadMissing: 5070243
statStreamBufferHit: 6341087
statPrefetchEntryFound: 6119624
statCompactorMatch: 11831532
statStreamTrackerLookup: 13100889
statRecord: 1269357
statGetPointer: 6759802
statEnqueuePrefetch: 17840469
statPrefetchQueueIsFull: 50152
StreamBufferHitRate: 0.48402
Regions' size: 1591
next_region_correct: 745813
next_region_wrong: 521945
next_region_correct_prediction: 0.588293
statStreamBufferLookups: 131008890
statL1iLookups: 142723752
statCompactorLookups: 209614224
morteza: start

SHEET
mana_table_access_counter : 7439125
hobp_table_access_counter : 38286421
sab_access_counter : 12460711
srq_access_counter : 12664501

morteza: end
CPU 0 L1D next line prefetcher final stats

DRAM Statistics
 CHANNEL 0
 RQ ROW_BUFFER_HIT:    1013417  ROW_BUFFER_MISS:    2834199
 DBUS_CONGESTED:    5524501
 WQ ROW_BUFFER_HIT:     944501  ROW_BUFFER_MISS:    2216390  FULL:          0

 AVG_CONGESTED_CYCLE: 6

CPU 0 Branch Prediction Accuracy: 99.5987% MPKI: 0.82446 Average ROB Occupancy at Mispredict: 115.794

Branch types
NOT_BRANCH: 39726805 79.4536%
BRANCH_DIRECT_JUMP: 391438 0.782876%
BRANCH_INDIRECT: 62076 0.124152%
BRANCH_CONDITIONAL: 8421541 16.8431%
BRANCH_DIRECT_CALL: 672962 1.34592%
BRANCH_INDIRECT_CALL: 26115 0.05223%
BRANCH_RETURN: 699082 1.39816%
BRANCH_OTHER: 0 0%

