Initialize SIGNATURE TABLE
ST_SET: 1
ST_WAY: 256
ST_TAG_BIT: 16
ST_TAG_MASK: ffff

Initialize PATTERN TABLE
PT_SET: 512
PT_WAY: 4
SIG_DELTA_BIT: 7
C_SIG_BIT: 4
C_DELTA_BIT: 4

Initialize PREFETCH FILTER
FILTER_SET: 1024

*** ChampSim Multicore Out-of-Order Simulator ***

Warmup Instructions: 50000000
Simulation Instructions: 50000000
Number of CPUs: 1
LLC sets: 2048
LLC ways: 16
Off-chip DRAM Size: 4096 MB Channels: 1 Width: 64-bit Data Rate: 3200 MT/s

CPU 0 runs /home/mbaradaran/ChampSim/dpc3_traces/client_002.champsimtrace.xz
CPU 0 L1I next line prefetcher
CPU 0 L1D next line prefetcher
Heartbeat CPU 0 instructions: 10000000 cycles: 3405102 heartbeat IPC: 2.93677 cumulative IPC: 2.93677 (Simulation time: 0 hr 1 min 9 sec) 
Heartbeat CPU 0 instructions: 20000002 cycles: 6860583 heartbeat IPC: 2.89395 cumulative IPC: 2.9152 (Simulation time: 0 hr 2 min 22 sec) 
Heartbeat CPU 0 instructions: 30000001 cycles: 10293503 heartbeat IPC: 2.91297 cumulative IPC: 2.91446 (Simulation time: 0 hr 3 min 37 sec) 
Heartbeat CPU 0 instructions: 40000002 cycles: 13726198 heartbeat IPC: 2.91316 cumulative IPC: 2.91414 (Simulation time: 0 hr 4 min 49 sec) 
Heartbeat CPU 0 instructions: 50000002 cycles: 17166776 heartbeat IPC: 2.90649 cumulative IPC: 2.9126 (Simulation time: 0 hr 6 min 4 sec) 

Warmup complete CPU 0 instructions: 50000002 cycles: 17166776 (Simulation time: 0 hr 6 min 4 sec) 

Heartbeat CPU 0 instructions: 60000002 cycles: 23195109 heartbeat IPC: 1.65883 cumulative IPC: 1.65883 (Simulation time: 0 hr 7 min 8 sec) 
Heartbeat CPU 0 instructions: 70000001 cycles: 29289303 heartbeat IPC: 1.64091 cumulative IPC: 1.64982 (Simulation time: 0 hr 8 min 13 sec) 
Heartbeat CPU 0 instructions: 80000002 cycles: 35256634 heartbeat IPC: 1.67579 cumulative IPC: 1.65839 (Simulation time: 0 hr 9 min 21 sec) 
Heartbeat CPU 0 instructions: 90000000 cycles: 41795855 heartbeat IPC: 1.52923 cumulative IPC: 1.6241 (Simulation time: 0 hr 10 min 23 sec) 
Heartbeat CPU 0 instructions: 100000003 cycles: 47828758 heartbeat IPC: 1.65758 cumulative IPC: 1.63068 (Simulation time: 0 hr 11 min 30 sec) 
Finished CPU 0 instructions: 50000001 cycles: 30661982 cumulative IPC: 1.63068 (Simulation time: 0 hr 11 min 30 sec) 

ChampSim completed all CPUs

Region of Interest Statistics

CPU 0 cumulative IPC: 1.63068 instructions: 50000001 cycles: 30661982

SHEET
IPC : 1.63068

L1D TOTAL     ACCESS:   19251581  HIT:   18912204  MISS:     339377
L1D LOAD      ACCESS:    6546276  HIT:    6429444  MISS:     116832
L1D RFO       ACCESS:    6421983  HIT:    6332318  MISS:      89665
L1D PREFETCH  ACCESS:    6283322  HIT:    6150442  MISS:     132880
L1D WRITEBACK ACCESS:          0  HIT:          0  MISS:          0
L1D PREFETCH  REQUESTED:    6556524  ISSUED:    6353110  USEFUL:      53957  USELESS:      79064
L1D AVERAGE MISS LATENCY: 48.6357 cycles
L1D

SHEET
L1D-total_access : 19251581
L1D-total_hit : 18912204
L1D-total_miss : 339377
L1D-load_access : 6546276
L1D-load_hit : 6429444
L1D-load_miss : 116832
L1D-rfo_access : 6421983
L1D-rfo_hit : 6332318
L1D-rfo_miss : 89665
L1D-prefetch_access : 6283322
L1D-prefetch_hit : 6150442
L1D-prefetch_miss : 132880
L1D-writeback_access : 0
L1D-writeback_hit : 0
L1D-writeback_miss : 0
L1D-prefetch_requested : 6556524
L1D-prefetch_issued : 6353110
L1D-prefetch_useful : 53957
L1D-prefetch_useless : 79064
L1D-Avg_miss_latency : 48.6357
L1D-Morteza_fill_l2_prefetches : 0

L1I TOTAL     ACCESS:   12472255  HIT:   11067599  MISS:    1404656
L1I LOAD      ACCESS:    9550883  HIT:    9387737  MISS:     163146
L1I RFO       ACCESS:          0  HIT:          0  MISS:          0
L1I PREFETCH  ACCESS:    2921372  HIT:    1679862  MISS:    1241510
L1I WRITEBACK ACCESS:          0  HIT:          0  MISS:          0
L1I PREFETCH  REQUESTED:    3017895  ISSUED:    3017872  USEFUL:     826213  USELESS:     415314
L1I AVERAGE MISS LATENCY: 16.9996 cycles
L1I

SHEET
L1I-total_access : 12472255
L1I-total_hit : 11067599
L1I-total_miss : 1404656
L1I-load_access : 9550883
L1I-load_hit : 9387737
L1I-load_miss : 163146
L1I-rfo_access : 0
L1I-rfo_hit : 0
L1I-rfo_miss : 0
L1I-prefetch_access : 2921372
L1I-prefetch_hit : 1679862
L1I-prefetch_miss : 1241510
L1I-writeback_access : 0
L1I-writeback_hit : 0
L1I-writeback_miss : 0
L1I-prefetch_requested : 3017895
L1I-prefetch_issued : 3017872
L1I-prefetch_useful : 826213
L1I-prefetch_useless : 415314
L1I-Avg_miss_latency : 16.9996
L1I-Morteza_fill_l2_prefetches : 0

L2C TOTAL     ACCESS:    2477104  HIT:    2233538  MISS:     243566
L2C LOAD      ACCESS:     252018  HIT:     206879  MISS:      45139
L2C RFO       ACCESS:      88726  HIT:      22714  MISS:      66012
L2C PREFETCH  ACCESS:    2010850  HIT:    1878884  MISS:     131966
L2C WRITEBACK ACCESS:     125510  HIT:     125061  MISS:        449
L2C PREFETCH  REQUESTED:    1918209  ISSUED:    1917357  USEFUL:      19903  USELESS:     111425
L2C AVERAGE MISS LATENCY: 64.0925 cycles
L2C

SHEET
L2C-total_access : 2477104
L2C-total_hit : 2233538
L2C-total_miss : 243566
L2C-load_access : 252018
L2C-load_hit : 206879
L2C-load_miss : 45139
L2C-rfo_access : 88726
L2C-rfo_hit : 22714
L2C-rfo_miss : 66012
L2C-prefetch_access : 2010850
L2C-prefetch_hit : 1878884
L2C-prefetch_miss : 131966
L2C-writeback_access : 125510
L2C-writeback_hit : 125061
L2C-writeback_miss : 449
L2C-prefetch_requested : 1918209
L2C-prefetch_issued : 1917357
L2C-prefetch_useful : 19903
L2C-prefetch_useless : 111425
L2C-Avg_miss_latency : 64.0925
L2C-Morteza_fill_l2_prefetches : 617454

LLC TOTAL     ACCESS:     743169  HIT:     676898  MISS:      66271
LLC LOAD      ACCESS:      45134  HIT:      39009  MISS:       6125
LLC RFO       ACCESS:      66012  HIT:      36666  MISS:      29346
LLC PREFETCH  ACCESS:     547505  HIT:     516963  MISS:      30542
LLC WRITEBACK ACCESS:      84518  HIT:      84260  MISS:        258
LLC PREFETCH  REQUESTED:          0  ISSUED:          0  USEFUL:       6421  USELESS:      22469
LLC AVERAGE MISS LATENCY: 176.236 cycles
LLC

SHEET
LLC-total_access : 743169
LLC-total_hit : 676898
LLC-total_miss : 66271
LLC-load_access : 45134
LLC-load_hit : 39009
LLC-load_miss : 6125
LLC-rfo_access : 66012
LLC-rfo_hit : 36666
LLC-rfo_miss : 29346
LLC-prefetch_access : 547505
LLC-prefetch_hit : 516963
LLC-prefetch_miss : 30542
LLC-writeback_access : 84518
LLC-writeback_hit : 84260
LLC-writeback_miss : 258
LLC-prefetch_requested : 0
LLC-prefetch_issued : 0
LLC-prefetch_useful : 6421
LLC-prefetch_useless : 22469
LLC-Avg_miss_latency : 176.236
LLC-Morteza_fill_l2_prefetches : 400107

Major fault: 0 Minor fault: 3091
I-Shadow cache 408 bytes
Touched + WorthPF tables 24576 bytes 
MMA filter 174 bytes 
FNL filter 272 bytes 
TOTAL PREFETCHER STORAGE SIZE: 98134 bytes
CPU 0 L1I next line prefetcher final stats

 morteza stats start 

SHEET
fnlfilter_access_cntr : 14960694
iShadow_access_cntr : 42500430
missahead_access_cntr : 4662704
mmafilter_access_cntr : 6533086
touched_access_cntr : 33758790
worthpf_access_cntr : 14264073


morteza stats endCPU 0 L1D next line prefetcher final stats

DRAM Statistics
 CHANNEL 0
 RQ ROW_BUFFER_HIT:      22344  ROW_BUFFER_MISS:      43666
 DBUS_CONGESTED:      44342
 WQ ROW_BUFFER_HIT:       8997  ROW_BUFFER_MISS:      28465  FULL:          0

 AVG_CONGESTED_CYCLE: 6

CPU 0 Branch Prediction Accuracy: 99.2117% MPKI: 1.49752 Average ROB Occupancy at Mispredict: 104.545

Branch types
NOT_BRANCH: 40501616 81.0032%
BRANCH_DIRECT_JUMP: 517397 1.03479%
BRANCH_INDIRECT: 112348 0.224696%
BRANCH_CONDITIONAL: 6698737 13.3975%
BRANCH_DIRECT_CALL: 960974 1.92195%
BRANCH_INDIRECT_CALL: 123707 0.247414%
BRANCH_RETURN: 1084929 2.16986%
BRANCH_OTHER: 0 0%

