Initialize SIGNATURE TABLE
ST_SET: 1
ST_WAY: 256
ST_TAG_BIT: 16
ST_TAG_MASK: ffff

Initialize PATTERN TABLE
PT_SET: 512
PT_WAY: 4
SIG_DELTA_BIT: 7
C_SIG_BIT: 4
C_DELTA_BIT: 4

Initialize PREFETCH FILTER
FILTER_SET: 1024

*** ChampSim Multicore Out-of-Order Simulator ***

Warmup Instructions: 50000000
Simulation Instructions: 50000000
Number of CPUs: 1
LLC sets: 2048
LLC ways: 16
Off-chip DRAM Size: 4096 MB Channels: 1 Width: 64-bit Data Rate: 3200 MT/s

CPU 0 runs /home/mbaradaran/ChampSim/dpc3_traces/client_005.champsimtrace.xz
CPU 0 L1I next line prefetcher
CPU 0 L1D next line prefetcher
Heartbeat CPU 0 instructions: 10000001 cycles: 3291595 heartbeat IPC: 3.03804 cumulative IPC: 3.03804 (Simulation time: 0 hr 1 min 10 sec) 
Heartbeat CPU 0 instructions: 20000002 cycles: 6698226 heartbeat IPC: 2.93545 cumulative IPC: 2.98587 (Simulation time: 0 hr 2 min 25 sec) 
Heartbeat CPU 0 instructions: 30000001 cycles: 10391558 heartbeat IPC: 2.70758 cumulative IPC: 2.88696 (Simulation time: 0 hr 3 min 51 sec) 
Heartbeat CPU 0 instructions: 40000000 cycles: 14069372 heartbeat IPC: 2.71901 cumulative IPC: 2.84306 (Simulation time: 0 hr 5 min 11 sec) 
Heartbeat CPU 0 instructions: 50000001 cycles: 17342837 heartbeat IPC: 3.05487 cumulative IPC: 2.88303 (Simulation time: 0 hr 6 min 28 sec) 

Warmup complete CPU 0 instructions: 50000001 cycles: 17342837 (Simulation time: 0 hr 6 min 28 sec) 

Heartbeat CPU 0 instructions: 60000002 cycles: 25234102 heartbeat IPC: 1.26722 cumulative IPC: 1.26722 (Simulation time: 0 hr 7 min 36 sec) 
Heartbeat CPU 0 instructions: 70000003 cycles: 32752321 heartbeat IPC: 1.3301 cumulative IPC: 1.2979 (Simulation time: 0 hr 8 min 44 sec) 
Heartbeat CPU 0 instructions: 80000001 cycles: 39877295 heartbeat IPC: 1.40351 cumulative IPC: 1.33129 (Simulation time: 0 hr 9 min 52 sec) 
Heartbeat CPU 0 instructions: 90000002 cycles: 49574562 heartbeat IPC: 1.03122 cumulative IPC: 1.24101 (Simulation time: 0 hr 11 min 7 sec) 
Heartbeat CPU 0 instructions: 100000002 cycles: 57311835 heartbeat IPC: 1.29245 cumulative IPC: 1.25097 (Simulation time: 0 hr 12 min 10 sec) 
Finished CPU 0 instructions: 50000001 cycles: 39968998 cumulative IPC: 1.25097 (Simulation time: 0 hr 12 min 10 sec) 

ChampSim completed all CPUs

Region of Interest Statistics

CPU 0 cumulative IPC: 1.25097 instructions: 50000001 cycles: 39968998

SHEET
IPC : 1.25097

L1D TOTAL     ACCESS:   19897536  HIT:   19361461  MISS:     536075
L1D LOAD      ACCESS:    6776330  HIT:    6604836  MISS:     171494
L1D RFO       ACCESS:    6804573  HIT:    6620341  MISS:     184232
L1D PREFETCH  ACCESS:    6316633  HIT:    6136284  MISS:     180349
L1D WRITEBACK ACCESS:          0  HIT:          0  MISS:          0
L1D PREFETCH  REQUESTED:    6800246  ISSUED:    6422255  USEFUL:      59857  USELESS:     120379
L1D AVERAGE MISS LATENCY: 92.5081 cycles
L1D

SHEET
L1D-total_access : 19897536
L1D-total_hit : 19361461
L1D-total_miss : 536075
L1D-load_access : 6776330
L1D-load_hit : 6604836
L1D-load_miss : 171494
L1D-rfo_access : 6804573
L1D-rfo_hit : 6620341
L1D-rfo_miss : 184232
L1D-prefetch_access : 6316633
L1D-prefetch_hit : 6136284
L1D-prefetch_miss : 180349
L1D-writeback_access : 0
L1D-writeback_hit : 0
L1D-writeback_miss : 0
L1D-prefetch_requested : 6800246
L1D-prefetch_issued : 6422255
L1D-prefetch_useful : 59857
L1D-prefetch_useless : 120379
L1D-Avg_miss_latency : 92.5081
L1D-Morteza_fill_l2_prefetches : 0

L1I TOTAL     ACCESS:   12054877  HIT:   10590693  MISS:    1464184
L1I LOAD      ACCESS:    9356032  HIT:    8941669  MISS:     414363
L1I RFO       ACCESS:          0  HIT:          0  MISS:          0
L1I PREFETCH  ACCESS:    2698845  HIT:    1649024  MISS:    1049821
L1I WRITEBACK ACCESS:          0  HIT:          0  MISS:          0
L1I PREFETCH  REQUESTED:    2841715  ISSUED:    2841639  USEFUL:     648854  USELESS:     400926
L1I AVERAGE MISS LATENCY: 18.8108 cycles
L1I

SHEET
L1I-total_access : 12054877
L1I-total_hit : 10590693
L1I-total_miss : 1464184
L1I-load_access : 9356032
L1I-load_hit : 8941669
L1I-load_miss : 414363
L1I-rfo_access : 0
L1I-rfo_hit : 0
L1I-rfo_miss : 0
L1I-prefetch_access : 2698845
L1I-prefetch_hit : 1649024
L1I-prefetch_miss : 1049821
L1I-writeback_access : 0
L1I-writeback_hit : 0
L1I-writeback_miss : 0
L1I-prefetch_requested : 2841715
L1I-prefetch_issued : 2841639
L1I-prefetch_useful : 648854
L1I-prefetch_useless : 400926
L1I-Avg_miss_latency : 18.8108
L1I-Morteza_fill_l2_prefetches : 0

L2C TOTAL     ACCESS:    2969591  HIT:    2580889  MISS:     388702
L2C LOAD      ACCESS:     539968  HIT:     450196  MISS:      89772
L2C RFO       ACCESS:     180593  HIT:      32195  MISS:     148398
L2C PREFETCH  ACCESS:    1995978  HIT:    1846790  MISS:     149188
L2C WRITEBACK ACCESS:     253052  HIT:     251708  MISS:       1344
L2C PREFETCH  REQUESTED:    2082947  ISSUED:    2082120  USEFUL:      18743  USELESS:     128844
L2C AVERAGE MISS LATENCY: 127.759 cycles
L2C

SHEET
L2C-total_access : 2969591
L2C-total_hit : 2580889
L2C-total_miss : 388702
L2C-load_access : 539968
L2C-load_hit : 450196
L2C-load_miss : 89772
L2C-rfo_access : 180593
L2C-rfo_hit : 32195
L2C-rfo_miss : 148398
L2C-prefetch_access : 1995978
L2C-prefetch_hit : 1846790
L2C-prefetch_miss : 149188
L2C-writeback_access : 253052
L2C-writeback_hit : 251708
L2C-writeback_miss : 1344
L2C-prefetch_requested : 2082947
L2C-prefetch_issued : 2082120
L2C-prefetch_useful : 18743
L2C-prefetch_useless : 128844
L2C-Avg_miss_latency : 127.759
L2C-Morteza_fill_l2_prefetches : 731920

LLC TOTAL     ACCESS:     998852  HIT:     696379  MISS:     302473
LLC LOAD      ACCESS:      89753  HIT:      47068  MISS:      42685
LLC RFO       ACCESS:     148395  HIT:      18312  MISS:     130083
LLC PREFETCH  ACCESS:     562010  HIT:     433275  MISS:     128735
LLC WRITEBACK ACCESS:     198694  HIT:     197724  MISS:        970
LLC PREFETCH  REQUESTED:          0  ISSUED:          0  USEFUL:      27428  USELESS:      97127
LLC AVERAGE MISS LATENCY: 168.968 cycles
LLC

SHEET
LLC-total_access : 998852
LLC-total_hit : 696379
LLC-total_miss : 302473
LLC-load_access : 89753
LLC-load_hit : 47068
LLC-load_miss : 42685
LLC-rfo_access : 148395
LLC-rfo_hit : 18312
LLC-rfo_miss : 130083
LLC-prefetch_access : 562010
LLC-prefetch_hit : 433275
LLC-prefetch_miss : 128735
LLC-writeback_access : 198694
LLC-writeback_hit : 197724
LLC-writeback_miss : 970
LLC-prefetch_requested : 0
LLC-prefetch_issued : 0
LLC-prefetch_useful : 27428
LLC-prefetch_useless : 97127
LLC-Avg_miss_latency : 168.968
LLC-Morteza_fill_l2_prefetches : 345282

Major fault: 0 Minor fault: 6084
I-Shadow cache 408 bytes
Touched + WorthPF tables 24576 bytes 
MMA filter 174 bytes 
FNL filter 272 bytes 
TOTAL PREFETCHER STORAGE SIZE: 98134 bytes
CPU 0 L1I next line prefetcher final stats

 morteza stats start 

SHEET
fnlfilter_access_cntr : 15555106
iShadow_access_cntr : 42127660
missahead_access_cntr : 5259016
mmafilter_access_cntr : 5135407
touched_access_cntr : 36974580
worthpf_access_cntr : 15732560


morteza stats endCPU 0 L1D next line prefetcher final stats

DRAM Statistics
 CHANNEL 0
 RQ ROW_BUFFER_HIT:      97674  ROW_BUFFER_MISS:     203815
 DBUS_CONGESTED:     244765
 WQ ROW_BUFFER_HIT:      51304  ROW_BUFFER_MISS:     131831  FULL:          0

 AVG_CONGESTED_CYCLE: 6

CPU 0 Branch Prediction Accuracy: 97.8666% MPKI: 3.9013 Average ROB Occupancy at Mispredict: 77.923

Branch types
NOT_BRANCH: 40856330 81.7127%
BRANCH_DIRECT_JUMP: 484667 0.969334%
BRANCH_INDIRECT: 85086 0.170172%
BRANCH_CONDITIONAL: 6230887 12.4618%
BRANCH_DIRECT_CALL: 1028917 2.05783%
BRANCH_INDIRECT_CALL: 141825 0.28365%
BRANCH_RETURN: 1171986 2.34397%
BRANCH_OTHER: 0 0%

