Initialize SIGNATURE TABLE
ST_SET: 1
ST_WAY: 256
ST_TAG_BIT: 16
ST_TAG_MASK: ffff

Initialize PATTERN TABLE
PT_SET: 512
PT_WAY: 4
SIG_DELTA_BIT: 7
C_SIG_BIT: 4
C_DELTA_BIT: 4

Initialize PREFETCH FILTER
FILTER_SET: 1024

*** ChampSim Multicore Out-of-Order Simulator ***

Warmup Instructions: 50000000
Simulation Instructions: 50000000
Number of CPUs: 1
LLC sets: 2048
LLC ways: 16
Off-chip DRAM Size: 4096 MB Channels: 1 Width: 64-bit Data Rate: 3200 MT/s

CPU 0 runs /home/mbaradaran/ChampSim/dpc3_traces/server_032.champsimtrace.xz
CPU 0 L1I next line prefetcher
CPU 0 L1D next line prefetcher
Heartbeat CPU 0 instructions: 10000002 cycles: 3520543 heartbeat IPC: 2.84047 cumulative IPC: 2.84047 (Simulation time: 0 hr 1 min 28 sec) 
Heartbeat CPU 0 instructions: 20000003 cycles: 7042349 heartbeat IPC: 2.83945 cumulative IPC: 2.83996 (Simulation time: 0 hr 2 min 52 sec) 
Heartbeat CPU 0 instructions: 30000000 cycles: 10564289 heartbeat IPC: 2.83934 cumulative IPC: 2.83976 (Simulation time: 0 hr 4 min 20 sec) 
Heartbeat CPU 0 instructions: 40000003 cycles: 14087596 heartbeat IPC: 2.83824 cumulative IPC: 2.83938 (Simulation time: 0 hr 5 min 43 sec) 
Heartbeat CPU 0 instructions: 50000000 cycles: 17609237 heartbeat IPC: 2.83958 cumulative IPC: 2.83942 (Simulation time: 0 hr 7 min 5 sec) 

Warmup complete CPU 0 instructions: 50000004 cycles: 17609238 (Simulation time: 0 hr 7 min 5 sec) 

Heartbeat CPU 0 instructions: 60000002 cycles: 24386860 heartbeat IPC: 1.47544 cumulative IPC: 1.47544 (Simulation time: 0 hr 8 min 29 sec) 
Heartbeat CPU 0 instructions: 70000000 cycles: 31159136 heartbeat IPC: 1.47661 cumulative IPC: 1.47603 (Simulation time: 0 hr 10 min 0 sec) 
*** Reached end of trace for Core: 0 Repeating trace: /home/mbaradaran/ChampSim/dpc3_traces/server_032.champsimtrace.xz
Heartbeat CPU 0 instructions: 80000003 cycles: 37930219 heartbeat IPC: 1.47687 cumulative IPC: 1.47631 (Simulation time: 0 hr 11 min 30 sec) 
Heartbeat CPU 0 instructions: 90000002 cycles: 44675935 heartbeat IPC: 1.48242 cumulative IPC: 1.47783 (Simulation time: 0 hr 12 min 54 sec) 
Heartbeat CPU 0 instructions: 100000001 cycles: 51437146 heartbeat IPC: 1.47902 cumulative IPC: 1.47807 (Simulation time: 0 hr 14 min 21 sec) 
Finished CPU 0 instructions: 50000002 cycles: 33827910 cumulative IPC: 1.47807 (Simulation time: 0 hr 14 min 21 sec) 

ChampSim completed all CPUs

Region of Interest Statistics

CPU 0 cumulative IPC: 1.47807 instructions: 50000002 cycles: 33827910

SHEET
IPC : 1.47807

L1D TOTAL     ACCESS:   19817918  HIT:   17989752  MISS:    1828166
L1D LOAD      ACCESS:    6773793  HIT:    5978986  MISS:     794807
L1D RFO       ACCESS:    6551465  HIT:    6257712  MISS:     293753
L1D PREFETCH  ACCESS:    6492660  HIT:    5753054  MISS:     739606
L1D WRITEBACK ACCESS:          0  HIT:          0  MISS:          0
L1D PREFETCH  REQUESTED:    6825049  ISSUED:    6687368  USEFUL:     169681  USELESS:     569924
L1D AVERAGE MISS LATENCY: 19.5191 cycles
L1D

SHEET
L1D-total_access : 19817918
L1D-total_hit : 17989752
L1D-total_miss : 1828166
L1D-load_access : 6773793
L1D-load_hit : 5978986
L1D-load_miss : 794807
L1D-rfo_access : 6551465
L1D-rfo_hit : 6257712
L1D-rfo_miss : 293753
L1D-prefetch_access : 6492660
L1D-prefetch_hit : 5753054
L1D-prefetch_miss : 739606
L1D-writeback_access : 0
L1D-writeback_hit : 0
L1D-writeback_miss : 0
L1D-prefetch_requested : 6825049
L1D-prefetch_issued : 6687368
L1D-prefetch_useful : 169681
L1D-prefetch_useless : 569924
L1D-Avg_miss_latency : 19.5191
L1D-Morteza_fill_l2_prefetches : 0

L1I TOTAL     ACCESS:   15138570  HIT:   10992527  MISS:    4146043
L1I LOAD      ACCESS:    9678480  HIT:    9546933  MISS:     131547
L1I RFO       ACCESS:          0  HIT:          0  MISS:          0
L1I PREFETCH  ACCESS:    5460090  HIT:    1445594  MISS:    4014496
L1I WRITEBACK ACCESS:          0  HIT:          0  MISS:          0
L1I PREFETCH  REQUESTED:    5728391  ISSUED:    5728391  USEFUL:    3211059  USELESS:     803444
L1I AVERAGE MISS LATENCY: 17.4253 cycles
L1I

SHEET
L1I-total_access : 15138570
L1I-total_hit : 10992527
L1I-total_miss : 4146043
L1I-load_access : 9678480
L1I-load_hit : 9546933
L1I-load_miss : 131547
L1I-rfo_access : 0
L1I-rfo_hit : 0
L1I-rfo_miss : 0
L1I-prefetch_access : 5460090
L1I-prefetch_hit : 1445594
L1I-prefetch_miss : 4014496
L1I-writeback_access : 0
L1I-writeback_hit : 0
L1I-writeback_miss : 0
L1I-prefetch_requested : 5728391
L1I-prefetch_issued : 5728391
L1I-prefetch_useful : 3211059
L1I-prefetch_useless : 803444
L1I-Avg_miss_latency : 17.4253
L1I-Morteza_fill_l2_prefetches : 0

L2C TOTAL     ACCESS:    8154359  HIT:    7476318  MISS:     678041
L2C LOAD      ACCESS:     824439  HIT:     723113  MISS:     101326
L2C RFO       ACCESS:     292333  HIT:     239339  MISS:      52994
L2C PREFETCH  ACCESS:    6401180  HIT:    5889936  MISS:     511244
L2C WRITEBACK ACCESS:     636407  HIT:     623930  MISS:      12477
L2C PREFETCH  REQUESTED:    7590861  ISSUED:    7567188  USEFUL:       8968  USELESS:     502117
L2C AVERAGE MISS LATENCY: 33.5356 cycles
L2C

SHEET
L2C-total_access : 8154359
L2C-total_hit : 7476318
L2C-total_miss : 678041
L2C-load_access : 824439
L2C-load_hit : 723113
L2C-load_miss : 101326
L2C-rfo_access : 292333
L2C-rfo_hit : 239339
L2C-rfo_miss : 52994
L2C-prefetch_access : 6401180
L2C-prefetch_hit : 5889936
L2C-prefetch_miss : 511244
L2C-writeback_access : 636407
L2C-writeback_hit : 623930
L2C-writeback_miss : 12477
L2C-prefetch_requested : 7590861
L2C-prefetch_issued : 7567188
L2C-prefetch_useful : 8968
L2C-prefetch_useless : 502117
L2C-Avg_miss_latency : 33.5356
L2C-Morteza_fill_l2_prefetches : 1585698

LLC TOTAL     ACCESS:    2591147  HIT:    2584217  MISS:       6930
LLC LOAD      ACCESS:     101319  HIT:     100842  MISS:        477
LLC RFO       ACCESS:      52982  HIT:      52982  MISS:          0
LLC PREFETCH  ACCESS:    2333119  HIT:    2326692  MISS:       6427
LLC WRITEBACK ACCESS:     103727  HIT:     103701  MISS:         26
LLC PREFETCH  REQUESTED:          0  ISSUED:          0  USEFUL:        387  USELESS:       1958
LLC AVERAGE MISS LATENCY: 149.483 cycles
LLC

SHEET
LLC-total_access : 2591147
LLC-total_hit : 2584217
LLC-total_miss : 6930
LLC-load_access : 101319
LLC-load_hit : 100842
LLC-load_miss : 477
LLC-rfo_access : 52982
LLC-rfo_hit : 52982
LLC-rfo_miss : 0
LLC-prefetch_access : 2333120
LLC-prefetch_hit : 2326693
LLC-prefetch_miss : 6427
LLC-writeback_access : 103727
LLC-writeback_hit : 103701
LLC-writeback_miss : 26
LLC-prefetch_requested : 0
LLC-prefetch_issued : 0
LLC-prefetch_useful : 387
LLC-prefetch_useless : 1958
LLC-Avg_miss_latency : 149.483
LLC-Morteza_fill_l2_prefetches : 1830145

Major fault: 0 Minor fault: 1179
I-Shadow cache 408 bytes
Touched + WorthPF tables 24576 bytes 
MMA filter 174 bytes 
FNL filter 272 bytes 
TOTAL PREFETCHER STORAGE SIZE: 98134 bytes
CPU 0 L1I next line prefetcher final stats

 morteza stats start 

SHEET
fnlfilter_access_cntr : 31005984
iShadow_access_cntr : 42756872
missahead_access_cntr : 8666982
mmafilter_access_cntr : 15033534
touched_access_cntr : 75244670
worthpf_access_cntr : 31131838


morteza stats endCPU 0 L1D next line prefetcher final stats

DRAM Statistics
 CHANNEL 0
 RQ ROW_BUFFER_HIT:       1782  ROW_BUFFER_MISS:       5122
 DBUS_CONGESTED:        886
 WQ ROW_BUFFER_HIT:          0  ROW_BUFFER_MISS:         11  FULL:          0

 AVG_CONGESTED_CYCLE: 4

CPU 0 Branch Prediction Accuracy: 99.8762% MPKI: 0.2296 Average ROB Occupancy at Mispredict: 191.22

Branch types
NOT_BRANCH: 40726098 81.4522%
BRANCH_DIRECT_JUMP: 508373 1.01675%
BRANCH_INDIRECT: 180051 0.360102%
BRANCH_CONDITIONAL: 5999654 11.9993%
BRANCH_DIRECT_CALL: 1086739 2.17348%
BRANCH_INDIRECT_CALL: 206109 0.412218%
BRANCH_RETURN: 1292836 2.58567%
BRANCH_OTHER: 0 0%

