Initialize SIGNATURE TABLE
ST_SET: 1
ST_WAY: 256
ST_TAG_BIT: 16
ST_TAG_MASK: ffff

Initialize PATTERN TABLE
PT_SET: 512
PT_WAY: 4
SIG_DELTA_BIT: 7
C_SIG_BIT: 4
C_DELTA_BIT: 4

Initialize PREFETCH FILTER
FILTER_SET: 1024

*** ChampSim Multicore Out-of-Order Simulator ***

Warmup Instructions: 50000000
Simulation Instructions: 50000000
Number of CPUs: 1
LLC sets: 2048
LLC ways: 16
Off-chip DRAM Size: 4096 MB Channels: 1 Width: 64-bit Data Rate: 3200 MT/s

CPU 0 runs /home/mbaradaran/ChampSim/dpc3_traces/server_001.champsimtrace.xz
CPU 0 L1I next line prefetcher
CPU 0 L1D next line prefetcher
Heartbeat CPU 0 instructions: 10000002 cycles: 3155168 heartbeat IPC: 3.1694 cumulative IPC: 3.1694 (Simulation time: 0 hr 1 min 10 sec) 
Heartbeat CPU 0 instructions: 20000000 cycles: 6369636 heartbeat IPC: 3.11093 cumulative IPC: 3.1399 (Simulation time: 0 hr 2 min 30 sec) 
Heartbeat CPU 0 instructions: 30000003 cycles: 9555525 heartbeat IPC: 3.13884 cumulative IPC: 3.13955 (Simulation time: 0 hr 3 min 38 sec) 
Heartbeat CPU 0 instructions: 40000002 cycles: 12762663 heartbeat IPC: 3.11804 cumulative IPC: 3.13414 (Simulation time: 0 hr 4 min 50 sec) 
Heartbeat CPU 0 instructions: 50000003 cycles: 15981159 heartbeat IPC: 3.10704 cumulative IPC: 3.12868 (Simulation time: 0 hr 5 min 59 sec) 

Warmup complete CPU 0 instructions: 50000003 cycles: 15981159 (Simulation time: 0 hr 5 min 59 sec) 

Heartbeat CPU 0 instructions: 60000000 cycles: 23230692 heartbeat IPC: 1.3794 cumulative IPC: 1.3794 (Simulation time: 0 hr 7 min 6 sec) 
Heartbeat CPU 0 instructions: 70000002 cycles: 30130692 heartbeat IPC: 1.44928 cumulative IPC: 1.41347 (Simulation time: 0 hr 8 min 17 sec) 
Heartbeat CPU 0 instructions: 80000002 cycles: 37044507 heartbeat IPC: 1.44638 cumulative IPC: 1.42427 (Simulation time: 0 hr 9 min 26 sec) 
Heartbeat CPU 0 instructions: 90000002 cycles: 44316593 heartbeat IPC: 1.37512 cumulative IPC: 1.41166 (Simulation time: 0 hr 10 min 35 sec) 
Heartbeat CPU 0 instructions: 100000003 cycles: 51200201 heartbeat IPC: 1.45273 cumulative IPC: 1.41969 (Simulation time: 0 hr 11 min 41 sec) 
Finished CPU 0 instructions: 50000000 cycles: 35219042 cumulative IPC: 1.41969 (Simulation time: 0 hr 11 min 41 sec) 

ChampSim completed all CPUs

Region of Interest Statistics

CPU 0 cumulative IPC: 1.41969 instructions: 50000000 cycles: 35219042

SHEET
IPC : 1.41969

L1D TOTAL     ACCESS:   17696900  HIT:   17185752  MISS:     511148
L1D LOAD      ACCESS:    6482862  HIT:    6277054  MISS:     205808
L1D RFO       ACCESS:    5057320  HIT:    4974762  MISS:      82558
L1D PREFETCH  ACCESS:    6156718  HIT:    5933936  MISS:     222782
L1D WRITEBACK ACCESS:          0  HIT:          0  MISS:          0
L1D PREFETCH  REQUESTED:    6512086  ISSUED:    6334853  USEFUL:     131002  USELESS:      91908
L1D AVERAGE MISS LATENCY: 95.9226 cycles
L1D

SHEET
L1D-total_access : 17696900
L1D-total_hit : 17185752
L1D-total_miss : 511148
L1D-load_access : 6482862
L1D-load_hit : 6277054
L1D-load_miss : 205808
L1D-rfo_access : 5057320
L1D-rfo_hit : 4974762
L1D-rfo_miss : 82558
L1D-prefetch_access : 6156718
L1D-prefetch_hit : 5933936
L1D-prefetch_miss : 222782
L1D-writeback_access : 0
L1D-writeback_hit : 0
L1D-writeback_miss : 0
L1D-prefetch_requested : 6512086
L1D-prefetch_issued : 6334853
L1D-prefetch_useful : 131002
L1D-prefetch_useless : 91908
L1D-Avg_miss_latency : 95.9226
L1D-Morteza_fill_l2_prefetches : 0

L1I TOTAL     ACCESS:   10080423  HIT:    9041999  MISS:    1038424
L1I LOAD      ACCESS:    8267701  HIT:    8158873  MISS:     108828
L1I RFO       ACCESS:          0  HIT:          0  MISS:          0
L1I PREFETCH  ACCESS:    1812722  HIT:     883126  MISS:     929596
L1I WRITEBACK ACCESS:          0  HIT:          0  MISS:          0
L1I PREFETCH  REQUESTED:    1865389  ISSUED:    1865289  USEFUL:     672142  USELESS:     257421
L1I AVERAGE MISS LATENCY: 28.3209 cycles
L1I

SHEET
L1I-total_access : 10080423
L1I-total_hit : 9041999
L1I-total_miss : 1038424
L1I-load_access : 8267701
L1I-load_hit : 8158873
L1I-load_miss : 108828
L1I-rfo_access : 0
L1I-rfo_hit : 0
L1I-rfo_miss : 0
L1I-prefetch_access : 1812722
L1I-prefetch_hit : 883126
L1I-prefetch_miss : 929596
L1I-writeback_access : 0
L1I-writeback_hit : 0
L1I-writeback_miss : 0
L1I-prefetch_requested : 1865389
L1I-prefetch_issued : 1865289
L1I-prefetch_useful : 672142
L1I-prefetch_useless : 257421
L1I-Avg_miss_latency : 28.3209
L1I-Morteza_fill_l2_prefetches : 0

L2C TOTAL     ACCESS:    2328000  HIT:    1848110  MISS:     479890
L2C LOAD      ACCESS:     248801  HIT:     155303  MISS:      93498
L2C RFO       ACCESS:      80926  HIT:      10177  MISS:      70749
L2C PREFETCH  ACCESS:    1790415  HIT:    1475185  MISS:     315230
L2C WRITEBACK ACCESS:     207858  HIT:     207445  MISS:        413
L2C PREFETCH  REQUESTED:    2387518  ISSUED:    2384145  USEFUL:      24730  USELESS:     290593
L2C AVERAGE MISS LATENCY: 127.215 cycles
L2C

SHEET
L2C-total_access : 2328000
L2C-total_hit : 1848110
L2C-total_miss : 479890
L2C-load_access : 248801
L2C-load_hit : 155303
L2C-load_miss : 93498
L2C-rfo_access : 80926
L2C-rfo_hit : 10177
L2C-rfo_miss : 70749
L2C-prefetch_access : 1790415
L2C-prefetch_hit : 1475185
L2C-prefetch_miss : 315230
L2C-writeback_access : 207858
L2C-writeback_hit : 207445
L2C-writeback_miss : 413
L2C-prefetch_requested : 2387518
L2C-prefetch_issued : 2384145
L2C-prefetch_useful : 24730
L2C-prefetch_useless : 290593
L2C-Avg_miss_latency : 127.215
L2C-Morteza_fill_l2_prefetches : 595219

LLC TOTAL     ACCESS:    1243664  HIT:     910002  MISS:     333662
LLC LOAD      ACCESS:      93405  HIT:      62743  MISS:      30662
LLC RFO       ACCESS:      70745  HIT:       6806  MISS:      63939
LLC PREFETCH  ACCESS:     911778  HIT:     672998  MISS:     238780
LLC WRITEBACK ACCESS:     167736  HIT:     167455  MISS:        281
LLC PREFETCH  REQUESTED:          0  ISSUED:          0  USEFUL:      26523  USELESS:     208252
LLC AVERAGE MISS LATENCY: 230.963 cycles
LLC

SHEET
LLC-total_access : 1243664
LLC-total_hit : 910002
LLC-total_miss : 333662
LLC-load_access : 93405
LLC-load_hit : 62743
LLC-load_miss : 30662
LLC-rfo_access : 70745
LLC-rfo_hit : 6806
LLC-rfo_miss : 63939
LLC-prefetch_access : 911778
LLC-prefetch_hit : 672998
LLC-prefetch_miss : 238780
LLC-writeback_access : 167736
LLC-writeback_hit : 167455
LLC-writeback_miss : 281
LLC-prefetch_requested : 0
LLC-prefetch_issued : 0
LLC-prefetch_useful : 26523
LLC-prefetch_useless : 208252
LLC-Avg_miss_latency : 230.963
LLC-Morteza_fill_l2_prefetches : 474420

Major fault: 0 Minor fault: 16700
I-Shadow cache 408 bytes
Touched + WorthPF tables 24576 bytes 
MMA filter 174 bytes 
FNL filter 272 bytes 
TOTAL PREFETCHER STORAGE SIZE: 98134 bytes
CPU 0 L1I next line prefetcher final stats

 morteza stats start 

SHEET
fnlfilter_access_cntr : 12388358
iShadow_access_cntr : 36354032
missahead_access_cntr : 2721225
mmafilter_access_cntr : 4393090
touched_access_cntr : 25404960
worthpf_access_cntr : 12074398


morteza stats endCPU 0 L1D next line prefetcher final stats

DRAM Statistics
 CHANNEL 0
 RQ ROW_BUFFER_HIT:     103847  ROW_BUFFER_MISS:     229512
 DBUS_CONGESTED:     231845
 WQ ROW_BUFFER_HIT:      34086  ROW_BUFFER_MISS:     125118  FULL:          0

 AVG_CONGESTED_CYCLE: 6

CPU 0 Branch Prediction Accuracy: 99.5889% MPKI: 0.70108 Average ROB Occupancy at Mispredict: 108.02

Branch types
NOT_BRANCH: 41473589 82.9472%
BRANCH_DIRECT_JUMP: 347941 0.695882%
BRANCH_INDIRECT: 148212 0.296424%
BRANCH_CONDITIONAL: 6817277 13.6346%
BRANCH_DIRECT_CALL: 570725 1.14145%
BRANCH_INDIRECT_CALL: 25133 0.050266%
BRANCH_RETURN: 617123 1.23425%
BRANCH_OTHER: 0 0%

