Initialize SIGNATURE TABLE
ST_SET: 1
ST_WAY: 256
ST_TAG_BIT: 16
ST_TAG_MASK: ffff

Initialize PATTERN TABLE
PT_SET: 512
PT_WAY: 4
SIG_DELTA_BIT: 7
C_SIG_BIT: 4
C_DELTA_BIT: 4

Initialize PREFETCH FILTER
FILTER_SET: 1024

*** ChampSim Multicore Out-of-Order Simulator ***

Warmup Instructions: 50000000
Simulation Instructions: 50000000
Number of CPUs: 1
LLC sets: 2048
LLC ways: 16
Off-chip DRAM Size: 4096 MB Channels: 1 Width: 64-bit Data Rate: 3200 MT/s

CPU 0 runs /home/mbaradaran/ChampSim/dpc3_traces/server_013.champsimtrace.xz
CPU 0 L1I next line prefetcher
CPU 0 L1D next line prefetcher
Heartbeat CPU 0 instructions: 10000000 cycles: 3211454 heartbeat IPC: 3.11385 cumulative IPC: 3.11385 (Simulation time: 0 hr 1 min 21 sec) 
Heartbeat CPU 0 instructions: 20000001 cycles: 6411396 heartbeat IPC: 3.12506 cumulative IPC: 3.11945 (Simulation time: 0 hr 2 min 35 sec) 
Heartbeat CPU 0 instructions: 30000002 cycles: 9615197 heartbeat IPC: 3.12129 cumulative IPC: 3.12006 (Simulation time: 0 hr 3 min 53 sec) 
Heartbeat CPU 0 instructions: 40000002 cycles: 12814382 heartbeat IPC: 3.1258 cumulative IPC: 3.12149 (Simulation time: 0 hr 5 min 4 sec) 
Heartbeat CPU 0 instructions: 50000000 cycles: 16013105 heartbeat IPC: 3.12625 cumulative IPC: 3.12244 (Simulation time: 0 hr 6 min 15 sec) 

Warmup complete CPU 0 instructions: 50000004 cycles: 16013106 (Simulation time: 0 hr 6 min 15 sec) 

Heartbeat CPU 0 instructions: 60000002 cycles: 23601430 heartbeat IPC: 1.31781 cumulative IPC: 1.31781 (Simulation time: 0 hr 7 min 26 sec) 
Heartbeat CPU 0 instructions: 70000002 cycles: 31364727 heartbeat IPC: 1.28811 cumulative IPC: 1.30279 (Simulation time: 0 hr 8 min 35 sec) 
Heartbeat CPU 0 instructions: 80000003 cycles: 38597346 heartbeat IPC: 1.38263 cumulative IPC: 1.32836 (Simulation time: 0 hr 9 min 44 sec) 
Heartbeat CPU 0 instructions: 90000003 cycles: 45996343 heartbeat IPC: 1.35153 cumulative IPC: 1.33408 (Simulation time: 0 hr 10 min 53 sec) 
Heartbeat CPU 0 instructions: 100000003 cycles: 53420177 heartbeat IPC: 1.34701 cumulative IPC: 1.33665 (Simulation time: 0 hr 12 min 0 sec) 
Finished CPU 0 instructions: 50000003 cycles: 37407072 cumulative IPC: 1.33665 (Simulation time: 0 hr 12 min 0 sec) 

ChampSim completed all CPUs

Region of Interest Statistics

CPU 0 cumulative IPC: 1.33665 instructions: 50000003 cycles: 37407072

SHEET
IPC : 1.33665

L1D TOTAL     ACCESS:   17327290  HIT:   16260677  MISS:    1066613
L1D LOAD      ACCESS:    6318876  HIT:    5816718  MISS:     502158
L1D RFO       ACCESS:    4930777  HIT:    4850655  MISS:      80122
L1D PREFETCH  ACCESS:    6077637  HIT:    5593304  MISS:     484333
L1D WRITEBACK ACCESS:          0  HIT:          0  MISS:          0
L1D PREFETCH  REQUESTED:    6353792  ISSUED:    6259586  USEFUL:     132766  USELESS:     351576
L1D AVERAGE MISS LATENCY: 42.2249 cycles
L1D

SHEET
L1D-total_access : 17327290
L1D-total_hit : 16260677
L1D-total_miss : 1066613
L1D-load_access : 6318876
L1D-load_hit : 5816718
L1D-load_miss : 502158
L1D-rfo_access : 4930777
L1D-rfo_hit : 4850655
L1D-rfo_miss : 80122
L1D-prefetch_access : 6077637
L1D-prefetch_hit : 5593304
L1D-prefetch_miss : 484333
L1D-writeback_access : 0
L1D-writeback_hit : 0
L1D-writeback_miss : 0
L1D-prefetch_requested : 6353792
L1D-prefetch_issued : 6259586
L1D-prefetch_useful : 132766
L1D-prefetch_useless : 351576
L1D-Avg_miss_latency : 42.2249
L1D-Morteza_fill_l2_prefetches : 0

L1I TOTAL     ACCESS:   11739527  HIT:    9522436  MISS:    2217091
L1I LOAD      ACCESS:    8687577  HIT:    8464254  MISS:     223323
L1I RFO       ACCESS:          0  HIT:          0  MISS:          0
L1I PREFETCH  ACCESS:    3051950  HIT:    1058182  MISS:    1993768
L1I WRITEBACK ACCESS:          0  HIT:          0  MISS:          0
L1I PREFETCH  REQUESTED:    3236737  ISSUED:    3236281  USEFUL:    1366908  USELESS:     626871
L1I AVERAGE MISS LATENCY: 28.8526 cycles
L1I

SHEET
L1I-total_access : 11739527
L1I-total_hit : 9522436
L1I-total_miss : 2217091
L1I-load_access : 8687577
L1I-load_hit : 8464254
L1I-load_miss : 223323
L1I-rfo_access : 0
L1I-rfo_hit : 0
L1I-rfo_miss : 0
L1I-prefetch_access : 3051950
L1I-prefetch_hit : 1058182
L1I-prefetch_miss : 1993768
L1I-writeback_access : 0
L1I-writeback_hit : 0
L1I-writeback_miss : 0
L1I-prefetch_requested : 3236737
L1I-prefetch_issued : 3236281
L1I-prefetch_useful : 1366908
L1I-prefetch_useless : 626871
L1I-Avg_miss_latency : 28.8526
L1I-Morteza_fill_l2_prefetches : 0

L2C TOTAL     ACCESS:    4109618  HIT:    2701620  MISS:    1407998
L2C LOAD      ACCESS:     589986  HIT:     315392  MISS:     274594
L2C RFO       ACCESS:      78844  HIT:      30612  MISS:      48232
L2C PREFETCH  ACCESS:    3164973  HIT:    2081321  MISS:    1083652
L2C WRITEBACK ACCESS:     275815  HIT:     274295  MISS:       1520
L2C PREFETCH  REQUESTED:    3372768  ISSUED:    3370403  USEFUL:      42236  USELESS:    1041591
L2C AVERAGE MISS LATENCY: 46.4267 cycles
L2C

SHEET
L2C-total_access : 4109618
L2C-total_hit : 2701620
L2C-total_miss : 1407998
L2C-load_access : 589986
L2C-load_hit : 315392
L2C-load_miss : 274594
L2C-rfo_access : 78844
L2C-rfo_hit : 30612
L2C-rfo_miss : 48232
L2C-prefetch_access : 3164973
L2C-prefetch_hit : 2081321
L2C-prefetch_miss : 1083652
L2C-writeback_access : 275815
L2C-writeback_hit : 274295
L2C-writeback_miss : 1520
L2C-prefetch_requested : 3372768
L2C-prefetch_issued : 3370403
L2C-prefetch_useful : 42236
L2C-prefetch_useless : 1041591
L2C-Avg_miss_latency : 46.4267
L2C-Morteza_fill_l2_prefetches : 581039

LLC TOTAL     ACCESS:    2499229  HIT:    2348545  MISS:     150684
LLC LOAD      ACCESS:     274452  HIT:     252876  MISS:      21576
LLC RFO       ACCESS:      48226  HIT:      38802  MISS:       9424
LLC PREFETCH  ACCESS:    2002134  HIT:    1882769  MISS:     119365
LLC WRITEBACK ACCESS:     174417  HIT:     174098  MISS:        319
LLC PREFETCH  REQUESTED:          0  ISSUED:          0  USEFUL:      10494  USELESS:     107621
LLC AVERAGE MISS LATENCY: 173.27 cycles
LLC

SHEET
LLC-total_access : 2499229
LLC-total_hit : 2348545
LLC-total_miss : 150684
LLC-load_access : 274452
LLC-load_hit : 252876
LLC-load_miss : 21576
LLC-rfo_access : 48226
LLC-rfo_hit : 38802
LLC-rfo_miss : 9424
LLC-prefetch_access : 2002134
LLC-prefetch_hit : 1882769
LLC-prefetch_miss : 119365
LLC-writeback_access : 174417
LLC-writeback_hit : 174098
LLC-writeback_miss : 319
LLC-prefetch_requested : 0
LLC-prefetch_issued : 0
LLC-prefetch_useful : 10494
LLC-prefetch_useless : 107621
LLC-Avg_miss_latency : 173.27
LLC-Morteza_fill_l2_prefetches : 952560

Major fault: 0 Minor fault: 6205
I-Shadow cache 408 bytes
Touched + WorthPF tables 24576 bytes 
MMA filter 174 bytes 
FNL filter 272 bytes 
TOTAL PREFETCHER STORAGE SIZE: 98134 bytes
CPU 0 L1I next line prefetcher final stats

 morteza stats start 

SHEET
fnlfilter_access_cntr : 20273258
iShadow_access_cntr : 38172292
missahead_access_cntr : 5832752
mmafilter_access_cntr : 8202427
touched_access_cntr : 42438410
worthpf_access_cntr : 20768233


morteza stats endCPU 0 L1D next line prefetcher final stats

DRAM Statistics
 CHANNEL 0
 RQ ROW_BUFFER_HIT:      24272  ROW_BUFFER_MISS:     126086
 DBUS_CONGESTED:      65771
 WQ ROW_BUFFER_HIT:      11948  ROW_BUFFER_MISS:      49719  FULL:          0

 AVG_CONGESTED_CYCLE: 5

CPU 0 Branch Prediction Accuracy: 99.4114% MPKI: 1.0933 Average ROB Occupancy at Mispredict: 120.777

Branch types
NOT_BRANCH: 40713270 81.4265%
BRANCH_DIRECT_JUMP: 463701 0.927402%
BRANCH_INDIRECT: 146544 0.293088%
BRANCH_CONDITIONAL: 6981955 13.9639%
BRANCH_DIRECT_CALL: 665005 1.33001%
BRANCH_INDIRECT_CALL: 165152 0.330304%
BRANCH_RETURN: 864314 1.72863%
BRANCH_OTHER: 0 0%

