Initialize SIGNATURE TABLE
ST_SET: 1
ST_WAY: 256
ST_TAG_BIT: 16
ST_TAG_MASK: ffff

Initialize PATTERN TABLE
PT_SET: 512
PT_WAY: 4
SIG_DELTA_BIT: 7
C_SIG_BIT: 4
C_DELTA_BIT: 4

Initialize PREFETCH FILTER
FILTER_SET: 1024

*** ChampSim Multicore Out-of-Order Simulator ***

Warmup Instructions: 50000000
Simulation Instructions: 50000000
Number of CPUs: 1
LLC sets: 2048
LLC ways: 16
Off-chip DRAM Size: 4096 MB Channels: 1 Width: 64-bit Data Rate: 3200 MT/s

CPU 0 runs /home/mbaradaran/ChampSim/dpc3_traces/server_035.champsimtrace.xz
CPU 0 L1I next line prefetcher
CPU 0 L1D next line prefetcher
Heartbeat CPU 0 instructions: 10000001 cycles: 3336082 heartbeat IPC: 2.99753 cumulative IPC: 2.99753 (Simulation time: 0 hr 1 min 18 sec) 
Heartbeat CPU 0 instructions: 20000000 cycles: 6671253 heartbeat IPC: 2.99835 cumulative IPC: 2.99794 (Simulation time: 0 hr 2 min 33 sec) 
Heartbeat CPU 0 instructions: 30000000 cycles: 10003339 heartbeat IPC: 3.00112 cumulative IPC: 2.999 (Simulation time: 0 hr 3 min 55 sec) 
Heartbeat CPU 0 instructions: 40000000 cycles: 13340426 heartbeat IPC: 2.99663 cumulative IPC: 2.9984 (Simulation time: 0 hr 5 min 14 sec) 
Heartbeat CPU 0 instructions: 50000003 cycles: 16674519 heartbeat IPC: 2.99932 cumulative IPC: 2.99859 (Simulation time: 0 hr 6 min 32 sec) 

Warmup complete CPU 0 instructions: 50000003 cycles: 16674519 (Simulation time: 0 hr 6 min 32 sec) 

Heartbeat CPU 0 instructions: 60000001 cycles: 25036620 heartbeat IPC: 1.19587 cumulative IPC: 1.19587 (Simulation time: 0 hr 8 min 9 sec) 
Heartbeat CPU 0 instructions: 70000003 cycles: 33023330 heartbeat IPC: 1.25208 cumulative IPC: 1.22333 (Simulation time: 0 hr 9 min 40 sec) 
Heartbeat CPU 0 instructions: 80000000 cycles: 41149909 heartbeat IPC: 1.23053 cumulative IPC: 1.22572 (Simulation time: 0 hr 11 min 12 sec) 
Heartbeat CPU 0 instructions: 90000002 cycles: 48640168 heartbeat IPC: 1.33507 cumulative IPC: 1.25134 (Simulation time: 0 hr 12 min 44 sec) 
Heartbeat CPU 0 instructions: 100000002 cycles: 56796381 heartbeat IPC: 1.22606 cumulative IPC: 1.2462 (Simulation time: 0 hr 14 min 13 sec) 
Finished CPU 0 instructions: 50000003 cycles: 40121863 cumulative IPC: 1.2462 (Simulation time: 0 hr 14 min 13 sec) 

ChampSim completed all CPUs

Region of Interest Statistics

CPU 0 cumulative IPC: 1.2462 instructions: 50000003 cycles: 40121863

SHEET
IPC : 1.2462

L1D TOTAL     ACCESS:   18202593  HIT:   16698470  MISS:    1504123
L1D LOAD      ACCESS:    6130448  HIT:    5429256  MISS:     701192
L1D RFO       ACCESS:    6159209  HIT:    6006990  MISS:     152219
L1D PREFETCH  ACCESS:    5912936  HIT:    5262224  MISS:     650712
L1D WRITEBACK ACCESS:          0  HIT:          0  MISS:          0
L1D PREFETCH  REQUESTED:    6175380  ISSUED:    6074775  USEFUL:     138962  USELESS:     511755
L1D AVERAGE MISS LATENCY: 42.4897 cycles
L1D

SHEET
L1D-total_access : 18202593
L1D-total_hit : 16698470
L1D-total_miss : 1504123
L1D-load_access : 6130448
L1D-load_hit : 5429256
L1D-load_miss : 701192
L1D-rfo_access : 6159209
L1D-rfo_hit : 6006990
L1D-rfo_miss : 152219
L1D-prefetch_access : 5912936
L1D-prefetch_hit : 5262224
L1D-prefetch_miss : 650712
L1D-writeback_access : 0
L1D-writeback_hit : 0
L1D-writeback_miss : 0
L1D-prefetch_requested : 6175380
L1D-prefetch_issued : 6074775
L1D-prefetch_useful : 138962
L1D-prefetch_useless : 511755
L1D-Avg_miss_latency : 42.4897
L1D-Morteza_fill_l2_prefetches : 0

L1I TOTAL     ACCESS:   15350164  HIT:   11068475  MISS:    4281689
L1I LOAD      ACCESS:    9700093  HIT:    9601311  MISS:      98782
L1I RFO       ACCESS:          0  HIT:          0  MISS:          0
L1I PREFETCH  ACCESS:    5650071  HIT:    1467164  MISS:    4182907
L1I WRITEBACK ACCESS:          0  HIT:          0  MISS:          0
L1I PREFETCH  REQUESTED:    5898600  ISSUED:    5898521  USEFUL:    3429932  USELESS:     752927
L1I AVERAGE MISS LATENCY: 15.9457 cycles
L1I

SHEET
L1I-total_access : 15350164
L1I-total_hit : 11068475
L1I-total_miss : 4281689
L1I-load_access : 9700093
L1I-load_hit : 9601311
L1I-load_miss : 98782
L1I-rfo_access : 0
L1I-rfo_hit : 0
L1I-rfo_miss : 0
L1I-prefetch_access : 5650071
L1I-prefetch_hit : 1467164
L1I-prefetch_miss : 4182907
L1I-writeback_access : 0
L1I-writeback_hit : 0
L1I-writeback_miss : 0
L1I-prefetch_requested : 5898600
L1I-prefetch_issued : 5898521
L1I-prefetch_useful : 3429932
L1I-prefetch_useless : 752927
L1I-Avg_miss_latency : 15.9457
L1I-Morteza_fill_l2_prefetches : 0

L2C TOTAL     ACCESS:    7566281  HIT:    7260960  MISS:     305321
L2C LOAD      ACCESS:     748306  HIT:     621739  MISS:     126567
L2C RFO       ACCESS:     150461  HIT:     129944  MISS:      20517
L2C PREFETCH  ACCESS:    6302470  HIT:    6145191  MISS:     157279
L2C WRITEBACK ACCESS:     365044  HIT:     364086  MISS:        958
L2C PREFETCH  REQUESTED:    8103149  ISSUED:    8077666  USEFUL:      14751  USELESS:     142227
L2C AVERAGE MISS LATENCY: 153.129 cycles
L2C

SHEET
L2C-total_access : 7566281
L2C-total_hit : 7260960
L2C-total_miss : 305321
L2C-load_access : 748306
L2C-load_hit : 621739
L2C-load_miss : 126567
L2C-rfo_access : 150461
L2C-rfo_hit : 129944
L2C-rfo_miss : 20517
L2C-prefetch_access : 6302470
L2C-prefetch_hit : 6145191
L2C-prefetch_miss : 157279
L2C-writeback_access : 365044
L2C-writeback_hit : 364086
L2C-writeback_miss : 958
L2C-prefetch_requested : 8103149
L2C-prefetch_issued : 8077666
L2C-prefetch_useful : 14751
L2C-prefetch_useless : 142227
L2C-Avg_miss_latency : 153.129
L2C-Morteza_fill_l2_prefetches : 1453938

LLC TOTAL     ACCESS:    3144031  HIT:    2836658  MISS:     307373
LLC LOAD      ACCESS:     126121  HIT:      48914  MISS:      77207
LLC RFO       ACCESS:      20517  HIT:      11382  MISS:       9135
LLC PREFETCH  ACCESS:    2895179  HIT:    2675340  MISS:     219839
LLC WRITEBACK ACCESS:     102214  HIT:     101022  MISS:       1192
LLC PREFETCH  REQUESTED:          0  ISSUED:          0  USEFUL:      39153  USELESS:     179374
LLC AVERAGE MISS LATENCY: 217.282 cycles
LLC

SHEET
LLC-total_access : 3144031
LLC-total_hit : 2836658
LLC-total_miss : 307373
LLC-load_access : 126121
LLC-load_hit : 48914
LLC-load_miss : 77207
LLC-rfo_access : 20517
LLC-rfo_hit : 11382
LLC-rfo_miss : 9135
LLC-prefetch_access : 2895179
LLC-prefetch_hit : 2675340
LLC-prefetch_miss : 219839
LLC-writeback_access : 102214
LLC-writeback_hit : 101022
LLC-writeback_miss : 1192
LLC-prefetch_requested : 0
LLC-prefetch_issued : 0
LLC-prefetch_useful : 39153
LLC-prefetch_useless : 179374
LLC-Avg_miss_latency : 217.282
LLC-Morteza_fill_l2_prefetches : 2606082

Major fault: 0 Minor fault: 5547
I-Shadow cache 408 bytes
Touched + WorthPF tables 24576 bytes 
MMA filter 174 bytes 
FNL filter 272 bytes 
TOTAL PREFETCHER STORAGE SIZE: 98134 bytes
CPU 0 L1I next line prefetcher final stats

 morteza stats start 

SHEET
fnlfilter_access_cntr : 31490943
iShadow_access_cntr : 42808274
missahead_access_cntr : 9339034
mmafilter_access_cntr : 15683184
touched_access_cntr : 76737070
worthpf_access_cntr : 30287549


morteza stats endCPU 0 L1D next line prefetcher final stats

DRAM Statistics
 CHANNEL 0
 RQ ROW_BUFFER_HIT:      79394  ROW_BUFFER_MISS:     226778
 DBUS_CONGESTED:     183991
 WQ ROW_BUFFER_HIT:      17231  ROW_BUFFER_MISS:      74273  FULL:          0

 AVG_CONGESTED_CYCLE: 6

CPU 0 Branch Prediction Accuracy: 99.9115% MPKI: 0.17232 Average ROB Occupancy at Mispredict: 216.603

Branch types
NOT_BRANCH: 40267415 80.5348%
BRANCH_DIRECT_JUMP: 771900 1.5438%
BRANCH_INDIRECT: 108179 0.216358%
BRANCH_CONDITIONAL: 6307189 12.6144%
BRANCH_DIRECT_CALL: 1060898 2.1218%
BRANCH_INDIRECT_CALL: 211720 0.42344%
BRANCH_RETURN: 1272639 2.54528%
BRANCH_OTHER: 0 0%

