Initialize SIGNATURE TABLE
ST_SET: 1
ST_WAY: 256
ST_TAG_BIT: 16
ST_TAG_MASK: ffff

Initialize PATTERN TABLE
PT_SET: 512
PT_WAY: 4
SIG_DELTA_BIT: 7
C_SIG_BIT: 4
C_DELTA_BIT: 4

Initialize PREFETCH FILTER
FILTER_SET: 1024

*** ChampSim Multicore Out-of-Order Simulator ***

Warmup Instructions: 50000000
Simulation Instructions: 50000000
Number of CPUs: 1
LLC sets: 2048
LLC ways: 16
Off-chip DRAM Size: 4096 MB Channels: 1 Width: 64-bit Data Rate: 3200 MT/s

CPU 0 runs /home/mbaradaran/ChampSim/dpc3_traces/server_019.champsimtrace.xz
CPU 0 L1I next line prefetcher
CPU 0 L1D next line prefetcher
Heartbeat CPU 0 instructions: 10000002 cycles: 3622634 heartbeat IPC: 2.76042 cumulative IPC: 2.76042 (Simulation time: 0 hr 1 min 33 sec) 
Heartbeat CPU 0 instructions: 20000003 cycles: 7246474 heartbeat IPC: 2.7595 cumulative IPC: 2.75996 (Simulation time: 0 hr 3 min 3 sec) 
Heartbeat CPU 0 instructions: 30000002 cycles: 10869041 heartbeat IPC: 2.76047 cumulative IPC: 2.76013 (Simulation time: 0 hr 4 min 37 sec) 
Heartbeat CPU 0 instructions: 40000002 cycles: 14503465 heartbeat IPC: 2.75147 cumulative IPC: 2.75796 (Simulation time: 0 hr 6 min 11 sec) 
Heartbeat CPU 0 instructions: 50000001 cycles: 18126292 heartbeat IPC: 2.76028 cumulative IPC: 2.75842 (Simulation time: 0 hr 7 min 35 sec) 

Warmup complete CPU 0 instructions: 50000001 cycles: 18126292 (Simulation time: 0 hr 7 min 35 sec) 

Heartbeat CPU 0 instructions: 60000000 cycles: 37791113 heartbeat IPC: 0.508522 cumulative IPC: 0.508522 (Simulation time: 0 hr 9 min 34 sec) 
Heartbeat CPU 0 instructions: 70000002 cycles: 61197714 heartbeat IPC: 0.42723 cumulative IPC: 0.464345 (Simulation time: 0 hr 11 min 32 sec) 
Heartbeat CPU 0 instructions: 80000001 cycles: 81553418 heartbeat IPC: 0.491263 cumulative IPC: 0.472984 (Simulation time: 0 hr 13 min 34 sec) 
Heartbeat CPU 0 instructions: 90000002 cycles: 98882680 heartbeat IPC: 0.577059 cumulative IPC: 0.495317 (Simulation time: 0 hr 15 min 35 sec) 
Heartbeat CPU 0 instructions: 100000002 cycles: 116169881 heartbeat IPC: 0.578463 cumulative IPC: 0.509977 (Simulation time: 0 hr 17 min 41 sec) 
Finished CPU 0 instructions: 50000001 cycles: 98043589 cumulative IPC: 0.509977 (Simulation time: 0 hr 17 min 41 sec) 

ChampSim completed all CPUs

Region of Interest Statistics

CPU 0 cumulative IPC: 0.509977 instructions: 50000001 cycles: 98043589

SHEET
IPC : 0.509977

L1D TOTAL     ACCESS:   18306701  HIT:   16083068  MISS:    2223633
L1D LOAD      ACCESS:    6978380  HIT:    6227985  MISS:     750395
L1D RFO       ACCESS:    5507834  HIT:    4605766  MISS:     902068
L1D PREFETCH  ACCESS:    5820487  HIT:    5249317  MISS:     571170
L1D WRITEBACK ACCESS:          0  HIT:          0  MISS:          0
L1D PREFETCH  REQUESTED:    7016089  ISSUED:    6830043  USEFUL:     201977  USELESS:     369102
L1D AVERAGE MISS LATENCY: 186.72 cycles
L1D

SHEET
L1D-total_access : 18306701
L1D-total_hit : 16083068
L1D-total_miss : 2223633
L1D-load_access : 6978380
L1D-load_hit : 6227985
L1D-load_miss : 750395
L1D-rfo_access : 5507834
L1D-rfo_hit : 4605766
L1D-rfo_miss : 902068
L1D-prefetch_access : 5820487
L1D-prefetch_hit : 5249317
L1D-prefetch_miss : 571170
L1D-writeback_access : 0
L1D-writeback_hit : 0
L1D-writeback_miss : 0
L1D-prefetch_requested : 7016089
L1D-prefetch_issued : 6830043
L1D-prefetch_useful : 201977
L1D-prefetch_useless : 369102
L1D-Avg_miss_latency : 186.72
L1D-Morteza_fill_l2_prefetches : 0

L1I TOTAL     ACCESS:   13987543  HIT:   11381522  MISS:    2606021
L1I LOAD      ACCESS:    9846066  HIT:    9795400  MISS:      50666
L1I RFO       ACCESS:          0  HIT:          0  MISS:          0
L1I PREFETCH  ACCESS:    4141477  HIT:    1586122  MISS:    2555355
L1I WRITEBACK ACCESS:          0  HIT:          0  MISS:          0
L1I PREFETCH  REQUESTED:    4286808  ISSUED:    4286808  USEFUL:    2197124  USELESS:     358236
L1I AVERAGE MISS LATENCY: 18.3118 cycles
L1I

SHEET
L1I-total_access : 13987543
L1I-total_hit : 11381522
L1I-total_miss : 2606021
L1I-load_access : 9846066
L1I-load_hit : 9795400
L1I-load_miss : 50666
L1I-rfo_access : 0
L1I-rfo_hit : 0
L1I-rfo_miss : 0
L1I-prefetch_access : 4141477
L1I-prefetch_hit : 1586122
L1I-prefetch_miss : 2555355
L1I-writeback_access : 0
L1I-writeback_hit : 0
L1I-writeback_miss : 0
L1I-prefetch_requested : 4286808
L1I-prefetch_issued : 4286808
L1I-prefetch_useful : 2197124
L1I-prefetch_useless : 358236
L1I-Avg_miss_latency : 18.3118
L1I-Morteza_fill_l2_prefetches : 0

L2C TOTAL     ACCESS:    7120970  HIT:    5235378  MISS:    1885592
L2C LOAD      ACCESS:     585714  HIT:     253751  MISS:     331963
L2C RFO       ACCESS:     901488  HIT:      18195  MISS:     883293
L2C PREFETCH  ACCESS:    4459122  HIT:    3791197  MISS:     667925
L2C WRITEBACK ACCESS:    1174646  HIT:    1172235  MISS:       2411
L2C PREFETCH  REQUESTED:    4604573  ISSUED:    4600304  USEFUL:      23668  USELESS:     642856
L2C AVERAGE MISS LATENCY: 222.673 cycles
L2C

SHEET
L2C-total_access : 7120970
L2C-total_hit : 5235378
L2C-total_miss : 1885592
L2C-load_access : 585714
L2C-load_hit : 253751
L2C-load_miss : 331963
L2C-rfo_access : 901488
L2C-rfo_hit : 18195
L2C-rfo_miss : 883293
L2C-prefetch_access : 4459122
L2C-prefetch_hit : 3791197
L2C-prefetch_miss : 667925
L2C-writeback_access : 1174646
L2C-writeback_hit : 1172235
L2C-writeback_miss : 2411
L2C-prefetch_requested : 4604573
L2C-prefetch_issued : 4600304
L2C-prefetch_useful : 23668
L2C-prefetch_useless : 642856
L2C-Avg_miss_latency : 222.673
L2C-Morteza_fill_l2_prefetches : 1142672

LLC TOTAL     ACCESS:    4204404  HIT:    2616915  MISS:    1587489
LLC LOAD      ACCESS:     331877  HIT:     168098  MISS:     163779
LLC RFO       ACCESS:     883268  HIT:     115551  MISS:     767717
LLC PREFETCH  ACCESS:    1878467  HIT:    1224590  MISS:     653877
LLC WRITEBACK ACCESS:    1110792  HIT:    1108676  MISS:       2116
LLC PREFETCH  REQUESTED:          0  ISSUED:          0  USEFUL:      51437  USELESS:     601621
LLC AVERAGE MISS LATENCY: 278.554 cycles
LLC

SHEET
LLC-total_access : 4204404
LLC-total_hit : 2616915
LLC-total_miss : 1587489
LLC-load_access : 331877
LLC-load_hit : 168098
LLC-load_miss : 163779
LLC-rfo_access : 883268
LLC-rfo_hit : 115551
LLC-rfo_miss : 767717
LLC-prefetch_access : 1878467
LLC-prefetch_hit : 1224590
LLC-prefetch_miss : 653877
LLC-writeback_access : 1110792
LLC-writeback_hit : 1108676
LLC-writeback_miss : 2116
LLC-prefetch_requested : 0
LLC-prefetch_issued : 0
LLC-prefetch_useful : 51437
LLC-prefetch_useless : 601621
LLC-Avg_miss_latency : 278.554
LLC-Morteza_fill_l2_prefetches : 916401

Major fault: 0 Minor fault: 25692
I-Shadow cache 408 bytes
Touched + WorthPF tables 24576 bytes 
MMA filter 174 bytes 
FNL filter 272 bytes 
TOTAL PREFETCHER STORAGE SIZE: 98134 bytes
CPU 0 L1I next line prefetcher final stats

 morteza stats start 

SHEET
fnlfilter_access_cntr : 24558701
iShadow_access_cntr : 42681934
missahead_access_cntr : 8318615
mmafilter_access_cntr : 13276556
touched_access_cntr : 62583560
worthpf_access_cntr : 23060147


morteza stats endCPU 0 L1D next line prefetcher final stats

DRAM Statistics
 CHANNEL 0
 RQ ROW_BUFFER_HIT:     394759  ROW_BUFFER_MISS:    1190342
 DBUS_CONGESTED:    1576959
 WQ ROW_BUFFER_HIT:     256658  ROW_BUFFER_MISS:     677930  FULL:          0

 AVG_CONGESTED_CYCLE: 6

CPU 0 Branch Prediction Accuracy: 99.2186% MPKI: 1.32192 Average ROB Occupancy at Mispredict: 178.946

Branch types
NOT_BRANCH: 41540785 83.0816%
BRANCH_DIRECT_JUMP: 462384 0.924768%
BRANCH_INDIRECT: 45460 0.09092%
BRANCH_CONDITIONAL: 6209281 12.4186%
BRANCH_DIRECT_CALL: 666241 1.33248%
BRANCH_INDIRECT_CALL: 204728 0.409456%
BRANCH_RETURN: 870978 1.74196%
BRANCH_OTHER: 0 0%

