Initialize SIGNATURE TABLE
ST_SET: 1
ST_WAY: 256
ST_TAG_BIT: 16
ST_TAG_MASK: ffff

Initialize PATTERN TABLE
PT_SET: 512
PT_WAY: 4
SIG_DELTA_BIT: 7
C_SIG_BIT: 4
C_DELTA_BIT: 4

Initialize PREFETCH FILTER
FILTER_SET: 1024

*** ChampSim Multicore Out-of-Order Simulator ***

Warmup Instructions: 50000000
Simulation Instructions: 50000000
Number of CPUs: 1
LLC sets: 2048
LLC ways: 16
Off-chip DRAM Size: 4096 MB Channels: 1 Width: 64-bit Data Rate: 3200 MT/s

CPU 0 runs /home/mbaradaran/ChampSim/dpc3_traces/server_037.champsimtrace.xz
CPU 0 L1I next line prefetcher
CPU 0 L1D next line prefetcher
Heartbeat CPU 0 instructions: 10000001 cycles: 3320014 heartbeat IPC: 3.01204 cumulative IPC: 3.01204 (Simulation time: 0 hr 1 min 20 sec) 
Heartbeat CPU 0 instructions: 20000002 cycles: 6637511 heartbeat IPC: 3.01432 cumulative IPC: 3.01318 (Simulation time: 0 hr 2 min 45 sec) 
Heartbeat CPU 0 instructions: 30000003 cycles: 10002593 heartbeat IPC: 2.9717 cumulative IPC: 2.99922 (Simulation time: 0 hr 4 min 13 sec) 
Heartbeat CPU 0 instructions: 40000000 cycles: 13321699 heartbeat IPC: 3.01286 cumulative IPC: 3.00262 (Simulation time: 0 hr 5 min 33 sec) 
Heartbeat CPU 0 instructions: 50000003 cycles: 16640266 heartbeat IPC: 3.01335 cumulative IPC: 3.00476 (Simulation time: 0 hr 6 min 52 sec) 

Warmup complete CPU 0 instructions: 50000003 cycles: 16640266 (Simulation time: 0 hr 6 min 52 sec) 

Heartbeat CPU 0 instructions: 60000001 cycles: 23025729 heartbeat IPC: 1.56606 cumulative IPC: 1.56606 (Simulation time: 0 hr 8 min 19 sec) 
Heartbeat CPU 0 instructions: 70000000 cycles: 29509815 heartbeat IPC: 1.54224 cumulative IPC: 1.55406 (Simulation time: 0 hr 9 min 40 sec) 
Heartbeat CPU 0 instructions: 80000000 cycles: 35881671 heartbeat IPC: 1.5694 cumulative IPC: 1.55914 (Simulation time: 0 hr 11 min 1 sec) 
Heartbeat CPU 0 instructions: 90000002 cycles: 42276439 heartbeat IPC: 1.56378 cumulative IPC: 1.5603 (Simulation time: 0 hr 12 min 22 sec) 
*** Reached end of trace for Core: 0 Repeating trace: /home/mbaradaran/ChampSim/dpc3_traces/server_037.champsimtrace.xz
Heartbeat CPU 0 instructions: 100000000 cycles: 48674511 heartbeat IPC: 1.56297 cumulative IPC: 1.56083 (Simulation time: 0 hr 13 min 41 sec) 
Finished CPU 0 instructions: 50000001 cycles: 32034246 cumulative IPC: 1.56083 (Simulation time: 0 hr 13 min 41 sec) 

ChampSim completed all CPUs

Region of Interest Statistics

CPU 0 cumulative IPC: 1.56083 instructions: 50000001 cycles: 32034246

SHEET
IPC : 1.56083

L1D TOTAL     ACCESS:   18688238  HIT:   17710294  MISS:     977944
L1D LOAD      ACCESS:    6359918  HIT:    5868540  MISS:     491378
L1D RFO       ACCESS:    6205311  HIT:    6141199  MISS:      64112
L1D PREFETCH  ACCESS:    6123009  HIT:    5700555  MISS:     422454
L1D WRITEBACK ACCESS:          0  HIT:          0  MISS:          0
L1D PREFETCH  REQUESTED:    6396475  ISSUED:    6243576  USEFUL:     117383  USELESS:     305076
L1D AVERAGE MISS LATENCY: 28.8308 cycles
L1D

SHEET
L1D-total_access : 18688238
L1D-total_hit : 17710294
L1D-total_miss : 977944
L1D-load_access : 6359918
L1D-load_hit : 5868540
L1D-load_miss : 491378
L1D-rfo_access : 6205311
L1D-rfo_hit : 6141199
L1D-rfo_miss : 64112
L1D-prefetch_access : 6123009
L1D-prefetch_hit : 5700555
L1D-prefetch_miss : 422454
L1D-writeback_access : 0
L1D-writeback_hit : 0
L1D-writeback_miss : 0
L1D-prefetch_requested : 6396475
L1D-prefetch_issued : 6243576
L1D-prefetch_useful : 117383
L1D-prefetch_useless : 305076
L1D-Avg_miss_latency : 28.8308
L1D-Morteza_fill_l2_prefetches : 0

L1I TOTAL     ACCESS:   15886684  HIT:   11125521  MISS:    4761163
L1I LOAD      ACCESS:    9420081  HIT:    9355644  MISS:      64437
L1I RFO       ACCESS:          0  HIT:          0  MISS:          0
L1I PREFETCH  ACCESS:    6466603  HIT:    1769877  MISS:    4696726
L1I WRITEBACK ACCESS:          0  HIT:          0  MISS:          0
L1I PREFETCH  REQUESTED:    6697784  ISSUED:    6697782  USEFUL:    4041067  USELESS:     655680
L1I AVERAGE MISS LATENCY: 14.9331 cycles
L1I

SHEET
L1I-total_access : 15886684
L1I-total_hit : 11125521
L1I-total_miss : 4761163
L1I-load_access : 9420081
L1I-load_hit : 9355644
L1I-load_miss : 64437
L1I-rfo_access : 0
L1I-rfo_hit : 0
L1I-rfo_miss : 0
L1I-prefetch_access : 6466603
L1I-prefetch_hit : 1769877
L1I-prefetch_miss : 4696726
L1I-writeback_access : 0
L1I-writeback_hit : 0
L1I-writeback_miss : 0
L1I-prefetch_requested : 6697784
L1I-prefetch_issued : 6697782
L1I-prefetch_useful : 4041067
L1I-prefetch_useless : 655680
L1I-Avg_miss_latency : 14.9331
L1I-Morteza_fill_l2_prefetches : 0

L2C TOTAL     ACCESS:    8112977  HIT:    7803000  MISS:     309977
L2C LOAD      ACCESS:     542868  HIT:     405091  MISS:     137777
L2C RFO       ACCESS:      63774  HIT:      37267  MISS:      26507
L2C PREFETCH  ACCESS:    7216819  HIT:    7072073  MISS:     144746
L2C WRITEBACK ACCESS:     289516  HIT:     288569  MISS:        947
L2C PREFETCH  REQUESTED:    6952034  ISSUED:    6944494  USEFUL:       7387  USELESS:     137181
L2C AVERAGE MISS LATENCY: 45.4922 cycles
L2C

SHEET
L2C-total_access : 8112977
L2C-total_hit : 7803000
L2C-total_miss : 309977
L2C-load_access : 542868
L2C-load_hit : 405091
L2C-load_miss : 137777
L2C-rfo_access : 63774
L2C-rfo_hit : 37267
L2C-rfo_miss : 26507
L2C-prefetch_access : 7216819
L2C-prefetch_hit : 7072073
L2C-prefetch_miss : 144746
L2C-writeback_access : 289516
L2C-writeback_hit : 288569
L2C-writeback_miss : 947
L2C-prefetch_requested : 6952034
L2C-prefetch_issued : 6944494
L2C-prefetch_useful : 7387
L2C-prefetch_useless : 137181
L2C-Avg_miss_latency : 45.4922
L2C-Morteza_fill_l2_prefetches : 2128070

LLC TOTAL     ACCESS:    1628610  HIT:    1578826  MISS:      49784
LLC LOAD      ACCESS:     137748  HIT:     124878  MISS:      12870
LLC RFO       ACCESS:      26505  HIT:      21905  MISS:       4600
LLC PREFETCH  ACCESS:    1327015  HIT:    1295252  MISS:      31763
LLC WRITEBACK ACCESS:     137342  HIT:     136791  MISS:        551
LLC PREFETCH  REQUESTED:          0  ISSUED:          0  USEFUL:       3609  USELESS:      28149
LLC AVERAGE MISS LATENCY: 162.895 cycles
LLC

SHEET
LLC-total_access : 1628610
LLC-total_hit : 1578826
LLC-total_miss : 49784
LLC-load_access : 137748
LLC-load_hit : 124878
LLC-load_miss : 12870
LLC-rfo_access : 26505
LLC-rfo_hit : 21905
LLC-rfo_miss : 4600
LLC-prefetch_access : 1327015
LLC-prefetch_hit : 1295252
LLC-prefetch_miss : 31763
LLC-writeback_access : 137342
LLC-writeback_hit : 136791
LLC-writeback_miss : 551
LLC-prefetch_requested : 0
LLC-prefetch_issued : 0
LLC-prefetch_useful : 3609
LLC-prefetch_useless : 28149
LLC-Avg_miss_latency : 162.895
LLC-Morteza_fill_l2_prefetches : 1170719

Major fault: 0 Minor fault: 5653
I-Shadow cache 408 bytes
Touched + WorthPF tables 24576 bytes 
MMA filter 174 bytes 
FNL filter 272 bytes 
TOTAL PREFETCHER STORAGE SIZE: 98134 bytes
CPU 0 L1I next line prefetcher final stats

 morteza stats start 

SHEET
fnlfilter_access_cntr : 37806606
iShadow_access_cntr : 41792248
missahead_access_cntr : 11112586
mmafilter_access_cntr : 18550391
touched_access_cntr : 92136910
worthpf_access_cntr : 35901840


morteza stats endCPU 0 L1D next line prefetcher final stats

DRAM Statistics
 CHANNEL 0
 RQ ROW_BUFFER_HIT:       7902  ROW_BUFFER_MISS:      41330
 DBUS_CONGESTED:      21080
 WQ ROW_BUFFER_HIT:       1230  ROW_BUFFER_MISS:      10184  FULL:          0

 AVG_CONGESTED_CYCLE: 4

CPU 0 Branch Prediction Accuracy: 99.913% MPKI: 0.15656 Average ROB Occupancy at Mispredict: 224.991

Branch types
NOT_BRANCH: 41001722 82.0034%
BRANCH_DIRECT_JUMP: 541941 1.08388%
BRANCH_INDIRECT: 59716 0.119432%
BRANCH_CONDITIONAL: 5916854 11.8337%
BRANCH_DIRECT_CALL: 1005465 2.01093%
BRANCH_INDIRECT_CALL: 234433 0.468866%
BRANCH_RETURN: 1239877 2.47975%
BRANCH_OTHER: 0 0%

