Initialize SIGNATURE TABLE
ST_SET: 1
ST_WAY: 256
ST_TAG_BIT: 16
ST_TAG_MASK: ffff

Initialize PATTERN TABLE
PT_SET: 512
PT_WAY: 4
SIG_DELTA_BIT: 7
C_SIG_BIT: 4
C_DELTA_BIT: 4

Initialize PREFETCH FILTER
FILTER_SET: 1024

*** ChampSim Multicore Out-of-Order Simulator ***

Warmup Instructions: 50000000
Simulation Instructions: 50000000
Number of CPUs: 1
LLC sets: 2048
LLC ways: 16
Off-chip DRAM Size: 4096 MB Channels: 1 Width: 64-bit Data Rate: 3200 MT/s

CPU 0 runs /home/mbaradaran/ChampSim/dpc3_traces/server_014.champsimtrace.xz
CPU 0 L1I next line prefetcher
CPU 0 L1D next line prefetcher
Heartbeat CPU 0 instructions: 10000003 cycles: 3519532 heartbeat IPC: 2.84129 cumulative IPC: 2.84129 (Simulation time: 0 hr 1 min 19 sec) 
Heartbeat CPU 0 instructions: 20000000 cycles: 7106364 heartbeat IPC: 2.78797 cumulative IPC: 2.81438 (Simulation time: 0 hr 2 min 37 sec) 
Heartbeat CPU 0 instructions: 30000001 cycles: 10647870 heartbeat IPC: 2.82366 cumulative IPC: 2.81747 (Simulation time: 0 hr 3 min 55 sec) 
Heartbeat CPU 0 instructions: 40000003 cycles: 14196092 heartbeat IPC: 2.81831 cumulative IPC: 2.81768 (Simulation time: 0 hr 5 min 20 sec) 
Heartbeat CPU 0 instructions: 50000000 cycles: 17744766 heartbeat IPC: 2.81795 cumulative IPC: 2.81773 (Simulation time: 0 hr 6 min 39 sec) 

Warmup complete CPU 0 instructions: 50000001 cycles: 17744767 (Simulation time: 0 hr 6 min 39 sec) 

Heartbeat CPU 0 instructions: 60000000 cycles: 24041113 heartbeat IPC: 1.58822 cumulative IPC: 1.58822 (Simulation time: 0 hr 8 min 0 sec) 
Heartbeat CPU 0 instructions: 70000003 cycles: 30343085 heartbeat IPC: 1.58681 cumulative IPC: 1.58751 (Simulation time: 0 hr 9 min 22 sec) 
*** Reached end of trace for Core: 0 Repeating trace: /home/mbaradaran/ChampSim/dpc3_traces/server_014.champsimtrace.xz
Heartbeat CPU 0 instructions: 80000001 cycles: 36935118 heartbeat IPC: 1.51698 cumulative IPC: 1.56329 (Simulation time: 0 hr 10 min 46 sec) 
Heartbeat CPU 0 instructions: 90000003 cycles: 44556617 heartbeat IPC: 1.31208 cumulative IPC: 1.49188 (Simulation time: 0 hr 12 min 10 sec) 
Heartbeat CPU 0 instructions: 100000001 cycles: 51047353 heartbeat IPC: 1.54066 cumulative IPC: 1.50138 (Simulation time: 0 hr 13 min 31 sec) 
Finished CPU 0 instructions: 50000000 cycles: 33302586 cumulative IPC: 1.50138 (Simulation time: 0 hr 13 min 31 sec) 

ChampSim completed all CPUs

Region of Interest Statistics

CPU 0 cumulative IPC: 1.50138 instructions: 50000000 cycles: 33302586

SHEET
IPC : 1.50138

L1D TOTAL     ACCESS:   21654915  HIT:   21584051  MISS:      70864
L1D LOAD      ACCESS:    6686231  HIT:    6659345  MISS:      26886
L1D RFO       ACCESS:    8414088  HIT:    8382015  MISS:      32073
L1D PREFETCH  ACCESS:    6554596  HIT:    6542691  MISS:      11905
L1D WRITEBACK ACCESS:          0  HIT:          0  MISS:          0
L1D PREFETCH  REQUESTED:    6690652  ISSUED:    6582189  USEFUL:       3350  USELESS:       8555
L1D AVERAGE MISS LATENCY: 227.721 cycles
L1D

SHEET
L1D-total_access : 21654915
L1D-total_hit : 21584051
L1D-total_miss : 70864
L1D-load_access : 6686231
L1D-load_hit : 6659345
L1D-load_miss : 26886
L1D-rfo_access : 8414088
L1D-rfo_hit : 8382015
L1D-rfo_miss : 32073
L1D-prefetch_access : 6554596
L1D-prefetch_hit : 6542691
L1D-prefetch_miss : 11905
L1D-writeback_access : 0
L1D-writeback_hit : 0
L1D-writeback_miss : 0
L1D-prefetch_requested : 6690652
L1D-prefetch_issued : 6582189
L1D-prefetch_useful : 3350
L1D-prefetch_useless : 8555
L1D-Avg_miss_latency : 227.721
L1D-Morteza_fill_l2_prefetches : 0

L1I TOTAL     ACCESS:   15494152  HIT:   12527875  MISS:    2966277
L1I LOAD      ACCESS:    9676687  HIT:    9557267  MISS:     119420
L1I RFO       ACCESS:          0  HIT:          0  MISS:          0
L1I PREFETCH  ACCESS:    5817465  HIT:    2970608  MISS:    2846857
L1I WRITEBACK ACCESS:          0  HIT:          0  MISS:          0
L1I PREFETCH  REQUESTED:    6032723  ISSUED:    6032722  USEFUL:    2254854  USELESS:     591969
L1I AVERAGE MISS LATENCY: 14.9823 cycles
L1I

SHEET
L1I-total_access : 15494152
L1I-total_hit : 12527875
L1I-total_miss : 2966277
L1I-load_access : 9676687
L1I-load_hit : 9557267
L1I-load_miss : 119420
L1I-rfo_access : 0
L1I-rfo_hit : 0
L1I-rfo_miss : 0
L1I-prefetch_access : 5817465
L1I-prefetch_hit : 2970608
L1I-prefetch_miss : 2846857
L1I-writeback_access : 0
L1I-writeback_hit : 0
L1I-writeback_miss : 0
L1I-prefetch_requested : 6032723
L1I-prefetch_issued : 6032722
L1I-prefetch_useful : 2254854
L1I-prefetch_useless : 591969
L1I-Avg_miss_latency : 14.9823
L1I-Morteza_fill_l2_prefetches : 0

L2C TOTAL     ACCESS:    4052840  HIT:    3981542  MISS:      71298
L2C LOAD      ACCESS:     123603  HIT:     102941  MISS:      20662
L2C RFO       ACCESS:      32019  HIT:       1105  MISS:      30914
L2C PREFETCH  ACCESS:    3858853  HIT:    3839148  MISS:      19705
L2C WRITEBACK ACCESS:      38365  HIT:      38348  MISS:         17
L2C PREFETCH  REQUESTED:    2776358  ISSUED:    2776316  USEFUL:       1914  USELESS:      17810
L2C AVERAGE MISS LATENCY: 257.882 cycles
L2C

SHEET
L2C-total_access : 4052840
L2C-total_hit : 3981542
L2C-total_miss : 71298
L2C-load_access : 123603
L2C-load_hit : 102941
L2C-load_miss : 20662
L2C-rfo_access : 32019
L2C-rfo_hit : 1105
L2C-rfo_miss : 30914
L2C-prefetch_access : 3858853
L2C-prefetch_hit : 3839148
L2C-prefetch_miss : 19705
L2C-writeback_access : 38365
L2C-writeback_hit : 38348
L2C-writeback_miss : 17
L2C-prefetch_requested : 2776358
L2C-prefetch_issued : 2776316
L2C-prefetch_useful : 1914
L2C-prefetch_useless : 17810
L2C-Avg_miss_latency : 257.882
L2C-Morteza_fill_l2_prefetches : 996929

LLC TOTAL     ACCESS:     574450  HIT:     507705  MISS:      66745
LLC LOAD      ACCESS:      19517  HIT:       5898  MISS:      13619
LLC RFO       ACCESS:      30914  HIT:       4279  MISS:      26635
LLC PREFETCH  ACCESS:     489130  HIT:     462772  MISS:      26358
LLC WRITEBACK ACCESS:      34889  HIT:      34756  MISS:        133
LLC PREFETCH  REQUESTED:          0  ISSUED:          0  USEFUL:       4503  USELESS:      22757
LLC AVERAGE MISS LATENCY: 301.199 cycles
LLC

SHEET
LLC-total_access : 574450
LLC-total_hit : 507705
LLC-total_miss : 66745
LLC-load_access : 19517
LLC-load_hit : 5898
LLC-load_miss : 13619
LLC-rfo_access : 30914
LLC-rfo_hit : 4279
LLC-rfo_miss : 26635
LLC-prefetch_access : 489130
LLC-prefetch_hit : 462772
LLC-prefetch_miss : 26358
LLC-writeback_access : 34889
LLC-writeback_hit : 34756
LLC-writeback_miss : 133
LLC-prefetch_requested : 0
LLC-prefetch_issued : 0
LLC-prefetch_useful : 4503
LLC-prefetch_useless : 22757
LLC-Avg_miss_latency : 301.199
LLC-Morteza_fill_l2_prefetches : 456228

Major fault: 0 Minor fault: 1911
I-Shadow cache 408 bytes
Touched + WorthPF tables 24576 bytes 
MMA filter 174 bytes 
FNL filter 272 bytes 
TOTAL PREFETCHER STORAGE SIZE: 98134 bytes
CPU 0 L1I next line prefetcher final stats

 morteza stats start 

SHEET
fnlfilter_access_cntr : 31163827
iShadow_access_cntr : 42677352
missahead_access_cntr : 11239697
mmafilter_access_cntr : 15543485
touched_access_cntr : 80793310
worthpf_access_cntr : 29236512


morteza stats endCPU 0 L1D next line prefetcher final stats

DRAM Statistics
 CHANNEL 0
 RQ ROW_BUFFER_HIT:      28964  ROW_BUFFER_MISS:      37647
 DBUS_CONGESTED:      69038
 WQ ROW_BUFFER_HIT:       8539  ROW_BUFFER_MISS:      24306  FULL:          0

 AVG_CONGESTED_CYCLE: 6

CPU 0 Branch Prediction Accuracy: 99.7719% MPKI: 0.38824 Average ROB Occupancy at Mispredict: 148.246

Branch types
NOT_BRANCH: 41489011 82.978%
BRANCH_DIRECT_JUMP: 449417 0.898834%
BRANCH_INDIRECT: 2330 0.00466%
BRANCH_CONDITIONAL: 5470016 10.94%
BRANCH_DIRECT_CALL: 1172187 2.34437%
BRANCH_INDIRECT_CALL: 122383 0.244766%
BRANCH_RETURN: 1294554 2.58911%
BRANCH_OTHER: 0 0%

