Initialize SIGNATURE TABLE
ST_SET: 1
ST_WAY: 256
ST_TAG_BIT: 16
ST_TAG_MASK: ffff

Initialize PATTERN TABLE
PT_SET: 512
PT_WAY: 4
SIG_DELTA_BIT: 7
C_SIG_BIT: 4
C_DELTA_BIT: 4

Initialize PREFETCH FILTER
FILTER_SET: 1024

*** ChampSim Multicore Out-of-Order Simulator ***

Warmup Instructions: 50000000
Simulation Instructions: 50000000
Number of CPUs: 1
LLC sets: 2048
LLC ways: 16
Off-chip DRAM Size: 4096 MB Channels: 1 Width: 64-bit Data Rate: 3200 MT/s

CPU 0 runs /home/mbaradaran/ChampSim/dpc3_traces/server_030.champsimtrace.xz
CPU 0 L1I next line prefetcher
CPU 0 L1D next line prefetcher
Heartbeat CPU 0 instructions: 10000003 cycles: 3505868 heartbeat IPC: 2.85236 cumulative IPC: 2.85236 (Simulation time: 0 hr 1 min 18 sec) 
Heartbeat CPU 0 instructions: 20000003 cycles: 7013605 heartbeat IPC: 2.85084 cumulative IPC: 2.8516 (Simulation time: 0 hr 2 min 38 sec) 
Heartbeat CPU 0 instructions: 30000000 cycles: 10519779 heartbeat IPC: 2.85211 cumulative IPC: 2.85177 (Simulation time: 0 hr 3 min 59 sec) 
Heartbeat CPU 0 instructions: 40000002 cycles: 14027511 heartbeat IPC: 2.85085 cumulative IPC: 2.85154 (Simulation time: 0 hr 5 min 26 sec) 
Heartbeat CPU 0 instructions: 50000002 cycles: 17538356 heartbeat IPC: 2.84832 cumulative IPC: 2.85089 (Simulation time: 0 hr 6 min 48 sec) 

Warmup complete CPU 0 instructions: 50000002 cycles: 17538356 (Simulation time: 0 hr 6 min 48 sec) 

Heartbeat CPU 0 instructions: 60000002 cycles: 24597014 heartbeat IPC: 1.4167 cumulative IPC: 1.4167 (Simulation time: 0 hr 8 min 19 sec) 
Heartbeat CPU 0 instructions: 70000000 cycles: 31669850 heartbeat IPC: 1.41386 cumulative IPC: 1.41528 (Simulation time: 0 hr 9 min 53 sec) 
Heartbeat CPU 0 instructions: 80000001 cycles: 38736410 heartbeat IPC: 1.41512 cumulative IPC: 1.41522 (Simulation time: 0 hr 11 min 27 sec) 
*** Reached end of trace for Core: 0 Repeating trace: /home/mbaradaran/ChampSim/dpc3_traces/server_030.champsimtrace.xz
Heartbeat CPU 0 instructions: 90000002 cycles: 45803074 heartbeat IPC: 1.41509 cumulative IPC: 1.41519 (Simulation time: 0 hr 13 min 1 sec) 
Heartbeat CPU 0 instructions: 100000002 cycles: 52854903 heartbeat IPC: 1.41807 cumulative IPC: 1.41577 (Simulation time: 0 hr 14 min 41 sec) 
Finished CPU 0 instructions: 50000000 cycles: 35316547 cumulative IPC: 1.41577 (Simulation time: 0 hr 14 min 41 sec) 

ChampSim completed all CPUs

Region of Interest Statistics

CPU 0 cumulative IPC: 1.41577 instructions: 50000000 cycles: 35316547

SHEET
IPC : 1.41577

L1D TOTAL     ACCESS:   19185883  HIT:   17109915  MISS:    2075968
L1D LOAD      ACCESS:    6780839  HIT:    5727117  MISS:    1053722
L1D RFO       ACCESS:    6170014  HIT:    5884366  MISS:     285648
L1D PREFETCH  ACCESS:    6235030  HIT:    5498432  MISS:     736598
L1D WRITEBACK ACCESS:          0  HIT:          0  MISS:          0
L1D PREFETCH  REQUESTED:    6833361  ISSUED:    6699973  USEFUL:     180965  USELESS:     555726
L1D AVERAGE MISS LATENCY: 19.673 cycles
L1D

SHEET
L1D-total_access : 19185883
L1D-total_hit : 17109915
L1D-total_miss : 2075968
L1D-load_access : 6780839
L1D-load_hit : 5727117
L1D-load_miss : 1053722
L1D-rfo_access : 6170014
L1D-rfo_hit : 5884366
L1D-rfo_miss : 285648
L1D-prefetch_access : 6235030
L1D-prefetch_hit : 5498432
L1D-prefetch_miss : 736598
L1D-writeback_access : 0
L1D-writeback_hit : 0
L1D-writeback_miss : 0
L1D-prefetch_requested : 6833361
L1D-prefetch_issued : 6699973
L1D-prefetch_useful : 180965
L1D-prefetch_useless : 555726
L1D-Avg_miss_latency : 19.673
L1D-Morteza_fill_l2_prefetches : 0

L1I TOTAL     ACCESS:   15398097  HIT:   11080279  MISS:    4317818
L1I LOAD      ACCESS:    9795675  HIT:    9667062  MISS:     128613
L1I RFO       ACCESS:          0  HIT:          0  MISS:          0
L1I PREFETCH  ACCESS:    5602422  HIT:    1413217  MISS:    4189205
L1I WRITEBACK ACCESS:          0  HIT:          0  MISS:          0
L1I PREFETCH  REQUESTED:    5831506  ISSUED:    5830218  USEFUL:    3037505  USELESS:    1151707
L1I AVERAGE MISS LATENCY: 18.0686 cycles
L1I

SHEET
L1I-total_access : 15398097
L1I-total_hit : 11080279
L1I-total_miss : 4317818
L1I-load_access : 9795675
L1I-load_hit : 9667062
L1I-load_miss : 128613
L1I-rfo_access : 0
L1I-rfo_hit : 0
L1I-rfo_miss : 0
L1I-prefetch_access : 5602422
L1I-prefetch_hit : 1413217
L1I-prefetch_miss : 4189205
L1I-writeback_access : 0
L1I-writeback_hit : 0
L1I-writeback_miss : 0
L1I-prefetch_requested : 5831506
L1I-prefetch_issued : 5830218
L1I-prefetch_useful : 3037505
L1I-prefetch_useless : 1151707
L1I-Avg_miss_latency : 18.0686
L1I-Morteza_fill_l2_prefetches : 0

L2C TOTAL     ACCESS:    8770640  HIT:    7912336  MISS:     858304
L2C LOAD      ACCESS:     959746  HIT:     802476  MISS:     157270
L2C RFO       ACCESS:     283511  HIT:     215343  MISS:      68168
L2C PREFETCH  ACCESS:    6911925  HIT:    6283563  MISS:     628362
L2C WRITEBACK ACCESS:     615458  HIT:     610954  MISS:       4504
L2C PREFETCH  REQUESTED:    8998118  ISSUED:    8973953  USEFUL:      20435  USELESS:     607581
L2C AVERAGE MISS LATENCY: 34.7628 cycles
L2C

SHEET
L2C-total_access : 8770640
L2C-total_hit : 7912336
L2C-total_miss : 858304
L2C-load_access : 959746
L2C-load_hit : 802476
L2C-load_miss : 157270
L2C-rfo_access : 283511
L2C-rfo_hit : 215343
L2C-rfo_miss : 68168
L2C-prefetch_access : 6911925
L2C-prefetch_hit : 6283563
L2C-prefetch_miss : 628362
L2C-writeback_access : 615458
L2C-writeback_hit : 610954
L2C-writeback_miss : 4504
L2C-prefetch_requested : 8998118
L2C-prefetch_issued : 8973953
L2C-prefetch_useful : 20435
L2C-prefetch_useless : 607581
L2C-Avg_miss_latency : 34.7628
L2C-Morteza_fill_l2_prefetches : 1851037

LLC TOTAL     ACCESS:    2988199  HIT:    2969395  MISS:      18804
LLC LOAD      ACCESS:     157167  HIT:     154557  MISS:       2610
LLC RFO       ACCESS:      68112  HIT:      66386  MISS:       1726
LLC PREFETCH  ACCESS:    2631216  HIT:    2616823  MISS:      14393
LLC WRITEBACK ACCESS:     131704  HIT:     131629  MISS:         75
LLC PREFETCH  REQUESTED:          0  ISSUED:          0  USEFUL:        917  USELESS:      12227
LLC AVERAGE MISS LATENCY: 145.036 cycles
LLC

SHEET
LLC-total_access : 2988199
LLC-total_hit : 2969395
LLC-total_miss : 18804
LLC-load_access : 157167
LLC-load_hit : 154557
LLC-load_miss : 2610
LLC-rfo_access : 68112
LLC-rfo_hit : 66386
LLC-rfo_miss : 1726
LLC-prefetch_access : 2631216
LLC-prefetch_hit : 2616823
LLC-prefetch_miss : 14393
LLC-writeback_access : 131704
LLC-writeback_hit : 131629
LLC-writeback_miss : 75
LLC-prefetch_requested : 0
LLC-prefetch_issued : 0
LLC-prefetch_useful : 917
LLC-prefetch_useless : 12227
LLC-Avg_miss_latency : 145.036
LLC-Morteza_fill_l2_prefetches : 2020875

Major fault: 0 Minor fault: 2040
I-Shadow cache 408 bytes
Touched + WorthPF tables 24576 bytes 
MMA filter 174 bytes 
FNL filter 272 bytes 
TOTAL PREFETCHER STORAGE SIZE: 98134 bytes
CPU 0 L1I next line prefetcher final stats

 morteza stats start 

SHEET
fnlfilter_access_cntr : 29990145
iShadow_access_cntr : 43051504
missahead_access_cntr : 9079961
mmafilter_access_cntr : 15443927
touched_access_cntr : 70103660
worthpf_access_cntr : 29615978


morteza stats endCPU 0 L1D next line prefetcher final stats

DRAM Statistics
 CHANNEL 0
 RQ ROW_BUFFER_HIT:       6292  ROW_BUFFER_MISS:      12437
 DBUS_CONGESTED:       6610
 WQ ROW_BUFFER_HIT:        145  ROW_BUFFER_MISS:       2171  FULL:          0

 AVG_CONGESTED_CYCLE: 5

CPU 0 Branch Prediction Accuracy: 99.8445% MPKI: 0.29148 Average ROB Occupancy at Mispredict: 176.469

Branch types
NOT_BRANCH: 40628075 81.2562%
BRANCH_DIRECT_JUMP: 490941 0.981882%
BRANCH_INDIRECT: 175854 0.351708%
BRANCH_CONDITIONAL: 6321415 12.6428%
BRANCH_DIRECT_CALL: 1002072 2.00414%
BRANCH_INDIRECT_CALL: 189783 0.379566%
BRANCH_RETURN: 1191851 2.3837%
BRANCH_OTHER: 0 0%

