Initialize SIGNATURE TABLE
ST_SET: 1
ST_WAY: 256
ST_TAG_BIT: 16
ST_TAG_MASK: ffff

Initialize PATTERN TABLE
PT_SET: 512
PT_WAY: 4
SIG_DELTA_BIT: 7
C_SIG_BIT: 4
C_DELTA_BIT: 4

Initialize PREFETCH FILTER
FILTER_SET: 1024

*** ChampSim Multicore Out-of-Order Simulator ***

Warmup Instructions: 50000000
Simulation Instructions: 50000000
Number of CPUs: 1
LLC sets: 2048
LLC ways: 16
Off-chip DRAM Size: 4096 MB Channels: 1 Width: 64-bit Data Rate: 3200 MT/s

CPU 0 runs /home/mbaradaran/ChampSim/dpc3_traces/server_012.champsimtrace.xz
CPU 0 L1I next line prefetcher
CPU 0 L1D next line prefetcher
Heartbeat CPU 0 instructions: 10000002 cycles: 3192774 heartbeat IPC: 3.13207 cumulative IPC: 3.13207 (Simulation time: 0 hr 1 min 19 sec) 
Heartbeat CPU 0 instructions: 20000002 cycles: 6388150 heartbeat IPC: 3.12952 cumulative IPC: 3.1308 (Simulation time: 0 hr 2 min 34 sec) 
Heartbeat CPU 0 instructions: 30000001 cycles: 9584662 heartbeat IPC: 3.12841 cumulative IPC: 3.13 (Simulation time: 0 hr 3 min 45 sec) 
Heartbeat CPU 0 instructions: 40000000 cycles: 12787060 heartbeat IPC: 3.12266 cumulative IPC: 3.12816 (Simulation time: 0 hr 5 min 5 sec) 
Heartbeat CPU 0 instructions: 50000003 cycles: 15982089 heartbeat IPC: 3.12986 cumulative IPC: 3.1285 (Simulation time: 0 hr 6 min 21 sec) 

Warmup complete CPU 0 instructions: 50000003 cycles: 15982089 (Simulation time: 0 hr 6 min 21 sec) 

Heartbeat CPU 0 instructions: 60000002 cycles: 23352928 heartbeat IPC: 1.3567 cumulative IPC: 1.3567 (Simulation time: 0 hr 7 min 35 sec) 
Heartbeat CPU 0 instructions: 70000000 cycles: 30798048 heartbeat IPC: 1.34316 cumulative IPC: 1.3499 (Simulation time: 0 hr 8 min 43 sec) 
Heartbeat CPU 0 instructions: 80000003 cycles: 38255211 heartbeat IPC: 1.34099 cumulative IPC: 1.34691 (Simulation time: 0 hr 9 min 55 sec) 
Heartbeat CPU 0 instructions: 90000001 cycles: 45957435 heartbeat IPC: 1.29833 cumulative IPC: 1.33443 (Simulation time: 0 hr 11 min 3 sec) 
Heartbeat CPU 0 instructions: 100000002 cycles: 53507056 heartbeat IPC: 1.32457 cumulative IPC: 1.33245 (Simulation time: 0 hr 12 min 13 sec) 
Finished CPU 0 instructions: 50000001 cycles: 37524968 cumulative IPC: 1.33245 (Simulation time: 0 hr 12 min 13 sec) 

ChampSim completed all CPUs

Region of Interest Statistics

CPU 0 cumulative IPC: 1.33245 instructions: 50000001 cycles: 37524968

SHEET
IPC : 1.33245

L1D TOTAL     ACCESS:   17446873  HIT:   16403822  MISS:    1043051
L1D LOAD      ACCESS:    6359290  HIT:    5871211  MISS:     488079
L1D RFO       ACCESS:    4970783  HIT:    4889025  MISS:      81758
L1D PREFETCH  ACCESS:    6116800  HIT:    5643586  MISS:     473214
L1D WRITEBACK ACCESS:          0  HIT:          0  MISS:          0
L1D PREFETCH  REQUESTED:    6393426  ISSUED:    6295133  USEFUL:     132646  USELESS:     340589
L1D AVERAGE MISS LATENCY: 41.1526 cycles
L1D

SHEET
L1D-total_access : 17446873
L1D-total_hit : 16403822
L1D-total_miss : 1043051
L1D-load_access : 6359290
L1D-load_hit : 5871211
L1D-load_miss : 488079
L1D-rfo_access : 4970783
L1D-rfo_hit : 4889025
L1D-rfo_miss : 81758
L1D-prefetch_access : 6116800
L1D-prefetch_hit : 5643586
L1D-prefetch_miss : 473214
L1D-writeback_access : 0
L1D-writeback_hit : 0
L1D-writeback_miss : 0
L1D-prefetch_requested : 6393426
L1D-prefetch_issued : 6295133
L1D-prefetch_useful : 132646
L1D-prefetch_useless : 340589
L1D-Avg_miss_latency : 41.1526
L1D-Morteza_fill_l2_prefetches : 0

L1I TOTAL     ACCESS:   11671081  HIT:    9458778  MISS:    2212303
L1I LOAD      ACCESS:    8752864  HIT:    8465073  MISS:     287791
L1I RFO       ACCESS:          0  HIT:          0  MISS:          0
L1I PREFETCH  ACCESS:    2918217  HIT:     993705  MISS:    1924512
L1I WRITEBACK ACCESS:          0  HIT:          0  MISS:          0
L1I PREFETCH  REQUESTED:    3110536  ISSUED:    3109744  USEFUL:    1323505  USELESS:     601026
L1I AVERAGE MISS LATENCY: 27.6859 cycles
L1I

SHEET
L1I-total_access : 11671081
L1I-total_hit : 9458778
L1I-total_miss : 2212303
L1I-load_access : 8752864
L1I-load_hit : 8465073
L1I-load_miss : 287791
L1I-rfo_access : 0
L1I-rfo_hit : 0
L1I-rfo_miss : 0
L1I-prefetch_access : 2918217
L1I-prefetch_hit : 993705
L1I-prefetch_miss : 1924512
L1I-writeback_access : 0
L1I-writeback_hit : 0
L1I-writeback_miss : 0
L1I-prefetch_requested : 3110536
L1I-prefetch_issued : 3109744
L1I-prefetch_useful : 1323505
L1I-prefetch_useless : 601026
L1I-Avg_miss_latency : 27.6859
L1I-Morteza_fill_l2_prefetches : 0

L2C TOTAL     ACCESS:    4140007  HIT:    2834058  MISS:    1305949
L2C LOAD      ACCESS:     647599  HIT:     394762  MISS:     252837
L2C RFO       ACCESS:      80656  HIT:      31260  MISS:      49396
L2C PREFETCH  ACCESS:    3136234  HIT:    2133897  MISS:    1002337
L2C WRITEBACK ACCESS:     275518  HIT:     274139  MISS:       1379
L2C PREFETCH  REQUESTED:    3488934  ISSUED:    3485332  USEFUL:      39925  USELESS:     962473
L2C AVERAGE MISS LATENCY: 46.9739 cycles
L2C

SHEET
L2C-total_access : 4140007
L2C-total_hit : 2834058
L2C-total_miss : 1305949
L2C-load_access : 647599
L2C-load_hit : 394762
L2C-load_miss : 252837
L2C-rfo_access : 80656
L2C-rfo_hit : 31260
L2C-rfo_miss : 49396
L2C-prefetch_access : 3136234
L2C-prefetch_hit : 2133897
L2C-prefetch_miss : 1002337
L2C-writeback_access : 275518
L2C-writeback_hit : 274139
L2C-writeback_miss : 1379
L2C-prefetch_requested : 3488934
L2C-prefetch_issued : 3485332
L2C-prefetch_useful : 39925
L2C-prefetch_useless : 962473
L2C-Avg_miss_latency : 46.9739
L2C-Morteza_fill_l2_prefetches : 640377

LLC TOTAL     ACCESS:    2454883  HIT:    2292060  MISS:     162823
LLC LOAD      ACCESS:     252739  HIT:     232302  MISS:      20437
LLC RFO       ACCESS:      49394  HIT:      38305  MISS:      11089
LLC PREFETCH  ACCESS:    1985679  HIT:    1854838  MISS:     130841
LLC WRITEBACK ACCESS:     167071  HIT:     166615  MISS:        456
LLC PREFETCH  REQUESTED:          0  ISSUED:          0  USEFUL:      10420  USELESS:     119656
LLC AVERAGE MISS LATENCY: 174.912 cycles
LLC

SHEET
LLC-total_access : 2454883
LLC-total_hit : 2292060
LLC-total_miss : 162823
LLC-load_access : 252739
LLC-load_hit : 232302
LLC-load_miss : 20437
LLC-rfo_access : 49394
LLC-rfo_hit : 38305
LLC-rfo_miss : 11089
LLC-prefetch_access : 1985679
LLC-prefetch_hit : 1854838
LLC-prefetch_miss : 130841
LLC-writeback_access : 167071
LLC-writeback_hit : 166615
LLC-writeback_miss : 456
LLC-prefetch_requested : 0
LLC-prefetch_issued : 0
LLC-prefetch_useful : 10420
LLC-prefetch_useless : 119656
LLC-Avg_miss_latency : 174.912
LLC-Morteza_fill_l2_prefetches : 1002451

Major fault: 0 Minor fault: 5599
I-Shadow cache 408 bytes
Touched + WorthPF tables 24576 bytes 
MMA filter 174 bytes 
FNL filter 272 bytes 
TOTAL PREFETCHER STORAGE SIZE: 98134 bytes
CPU 0 L1I next line prefetcher final stats

 morteza stats start 

SHEET
fnlfilter_access_cntr : 18846421
iShadow_access_cntr : 38420972
missahead_access_cntr : 5804269
mmafilter_access_cntr : 7902039
touched_access_cntr : 39985930
worthpf_access_cntr : 19272894


morteza stats endCPU 0 L1D next line prefetcher final stats

DRAM Statistics
 CHANNEL 0
 RQ ROW_BUFFER_HIT:      25994  ROW_BUFFER_MISS:     136328
 DBUS_CONGESTED:      70432
 WQ ROW_BUFFER_HIT:      12448  ROW_BUFFER_MISS:      49793  FULL:          0

 AVG_CONGESTED_CYCLE: 5

CPU 0 Branch Prediction Accuracy: 99.4607% MPKI: 1.00288 Average ROB Occupancy at Mispredict: 118.402

Branch types
NOT_BRANCH: 40701133 81.4023%
BRANCH_DIRECT_JUMP: 469810 0.93962%
BRANCH_INDIRECT: 153732 0.307464%
BRANCH_CONDITIONAL: 6944084 13.8882%
BRANCH_DIRECT_CALL: 679880 1.35976%
BRANCH_INDIRECT_CALL: 168745 0.33749%
BRANCH_RETURN: 882493 1.76499%
BRANCH_OTHER: 0 0%

