Initialize SIGNATURE TABLE
ST_SET: 1
ST_WAY: 256
ST_TAG_BIT: 16
ST_TAG_MASK: ffff

Initialize PATTERN TABLE
PT_SET: 512
PT_WAY: 4
SIG_DELTA_BIT: 7
C_SIG_BIT: 4
C_DELTA_BIT: 4

Initialize PREFETCH FILTER
FILTER_SET: 1024

*** ChampSim Multicore Out-of-Order Simulator ***

Warmup Instructions: 50000000
Simulation Instructions: 50000000
Number of CPUs: 1
LLC sets: 2048
LLC ways: 16
Off-chip DRAM Size: 4096 MB Channels: 1 Width: 64-bit Data Rate: 3200 MT/s

CPU 0 runs /home/mbaradaran/ChampSim/dpc3_traces/server_017.champsimtrace.xz
CPU 0 L1I next line prefetcher
CPU 0 L1D next line prefetcher
Heartbeat CPU 0 instructions: 10000001 cycles: 3622795 heartbeat IPC: 2.7603 cumulative IPC: 2.7603 (Simulation time: 0 hr 1 min 25 sec) 
Heartbeat CPU 0 instructions: 20000000 cycles: 7243379 heartbeat IPC: 2.76199 cumulative IPC: 2.76114 (Simulation time: 0 hr 2 min 50 sec) 
Heartbeat CPU 0 instructions: 30000002 cycles: 10870821 heartbeat IPC: 2.75676 cumulative IPC: 2.75968 (Simulation time: 0 hr 4 min 13 sec) 
Heartbeat CPU 0 instructions: 40000000 cycles: 14493344 heartbeat IPC: 2.76051 cumulative IPC: 2.75989 (Simulation time: 0 hr 5 min 44 sec) 
Heartbeat CPU 0 instructions: 50000001 cycles: 18126667 heartbeat IPC: 2.7523 cumulative IPC: 2.75837 (Simulation time: 0 hr 7 min 17 sec) 

Warmup complete CPU 0 instructions: 50000001 cycles: 18126667 (Simulation time: 0 hr 7 min 17 sec) 

Heartbeat CPU 0 instructions: 60000002 cycles: 35450190 heartbeat IPC: 0.57725 cumulative IPC: 0.57725 (Simulation time: 0 hr 9 min 22 sec) 
Heartbeat CPU 0 instructions: 70000002 cycles: 52866883 heartbeat IPC: 0.574162 cumulative IPC: 0.575702 (Simulation time: 0 hr 11 min 32 sec) 
Heartbeat CPU 0 instructions: 80000000 cycles: 70039238 heartbeat IPC: 0.582331 cumulative IPC: 0.577895 (Simulation time: 0 hr 13 min 35 sec) 
Heartbeat CPU 0 instructions: 90000002 cycles: 93112422 heartbeat IPC: 0.433404 cumulative IPC: 0.533435 (Simulation time: 0 hr 15 min 34 sec) 
Heartbeat CPU 0 instructions: 100000003 cycles: 112944153 heartbeat IPC: 0.504242 cumulative IPC: 0.527329 (Simulation time: 0 hr 17 min 30 sec) 
Finished CPU 0 instructions: 50000002 cycles: 94817486 cumulative IPC: 0.527329 (Simulation time: 0 hr 17 min 30 sec) 

ChampSim completed all CPUs

Region of Interest Statistics

CPU 0 cumulative IPC: 0.527329 instructions: 50000002 cycles: 94817486

SHEET
IPC : 0.527329

L1D TOTAL     ACCESS:   18374612  HIT:   16209047  MISS:    2165565
L1D LOAD      ACCESS:    7027073  HIT:    6284339  MISS:     742734
L1D RFO       ACCESS:    5510388  HIT:    4651290  MISS:     859098
L1D PREFETCH  ACCESS:    5837151  HIT:    5273418  MISS:     563733
L1D WRITEBACK ACCESS:          0  HIT:          0  MISS:          0
L1D PREFETCH  REQUESTED:    7064836  ISSUED:    6875023  USEFUL:     201344  USELESS:     362450
L1D AVERAGE MISS LATENCY: 175.336 cycles
L1D

SHEET
L1D-total_access : 18374612
L1D-total_hit : 16209047
L1D-total_miss : 2165565
L1D-load_access : 7027073
L1D-load_hit : 6284339
L1D-load_miss : 742734
L1D-rfo_access : 5510388
L1D-rfo_hit : 4651290
L1D-rfo_miss : 859098
L1D-prefetch_access : 5837151
L1D-prefetch_hit : 5273418
L1D-prefetch_miss : 563733
L1D-writeback_access : 0
L1D-writeback_hit : 0
L1D-writeback_miss : 0
L1D-prefetch_requested : 7064836
L1D-prefetch_issued : 6875023
L1D-prefetch_useful : 201344
L1D-prefetch_useless : 362450
L1D-Avg_miss_latency : 175.336
L1D-Morteza_fill_l2_prefetches : 0

L1I TOTAL     ACCESS:   14055889  HIT:   11413825  MISS:    2642064
L1I LOAD      ACCESS:    9867691  HIT:    9804591  MISS:      63100
L1I RFO       ACCESS:          0  HIT:          0  MISS:          0
L1I PREFETCH  ACCESS:    4188198  HIT:    1609234  MISS:    2578964
L1I WRITEBACK ACCESS:          0  HIT:          0  MISS:          0
L1I PREFETCH  REQUESTED:    4344277  ISSUED:    4344277  USEFUL:    2173381  USELESS:     405589
L1I AVERAGE MISS LATENCY: 17.7414 cycles
L1I

SHEET
L1I-total_access : 14055889
L1I-total_hit : 11413825
L1I-total_miss : 2642064
L1I-load_access : 9867691
L1I-load_hit : 9804591
L1I-load_miss : 63100
L1I-rfo_access : 0
L1I-rfo_hit : 0
L1I-rfo_miss : 0
L1I-prefetch_access : 4188198
L1I-prefetch_hit : 1609234
L1I-prefetch_miss : 2578964
L1I-writeback_access : 0
L1I-writeback_hit : 0
L1I-writeback_miss : 0
L1I-prefetch_requested : 4344277
L1I-prefetch_issued : 4344277
L1I-prefetch_useful : 2173381
L1I-prefetch_useless : 405589
L1I-Avg_miss_latency : 17.7414
L1I-Morteza_fill_l2_prefetches : 0

L2C TOTAL     ACCESS:    7055923  HIT:    5216938  MISS:    1838985
L2C LOAD      ACCESS:     584118  HIT:     257446  MISS:     326672
L2C RFO       ACCESS:     858669  HIT:      17365  MISS:     841304
L2C PREFETCH  ACCESS:    4490278  HIT:    3821298  MISS:     668980
L2C WRITEBACK ACCESS:    1122858  HIT:    1120829  MISS:       2029
L2C PREFETCH  REQUESTED:    4588172  ISSUED:    4583333  USEFUL:      22907  USELESS:     646761
L2C AVERAGE MISS LATENCY: 208.849 cycles
L2C

SHEET
L2C-total_access : 7055923
L2C-total_hit : 5216938
L2C-total_miss : 1838985
L2C-load_access : 584118
L2C-load_hit : 257446
L2C-load_miss : 326672
L2C-rfo_access : 858669
L2C-rfo_hit : 17365
L2C-rfo_miss : 841304
L2C-prefetch_access : 4490278
L2C-prefetch_hit : 3821298
L2C-prefetch_miss : 668980
L2C-writeback_access : 1122858
L2C-writeback_hit : 1120829
L2C-writeback_miss : 2029
L2C-prefetch_requested : 4588172
L2C-prefetch_issued : 4583333
L2C-prefetch_useful : 22907
L2C-prefetch_useless : 646761
L2C-Avg_miss_latency : 208.849
L2C-Morteza_fill_l2_prefetches : 1155168

LLC TOTAL     ACCESS:    4106928  HIT:    2589639  MISS:    1517289
LLC LOAD      ACCESS:     326540  HIT:     169888  MISS:     156652
LLC RFO       ACCESS:     841299  HIT:     123786  MISS:     717513
LLC PREFETCH  ACCESS:    1877622  HIT:    1236396  MISS:     641226
LLC WRITEBACK ACCESS:    1061467  HIT:    1059569  MISS:       1898
LLC PREFETCH  REQUESTED:          0  ISSUED:          0  USEFUL:      48401  USELESS:     592003
LLC AVERAGE MISS LATENCY: 267.194 cycles
LLC

SHEET
LLC-total_access : 4106928
LLC-total_hit : 2589639
LLC-total_miss : 1517289
LLC-load_access : 326540
LLC-load_hit : 169888
LLC-load_miss : 156652
LLC-rfo_access : 841299
LLC-rfo_hit : 123786
LLC-rfo_miss : 717513
LLC-prefetch_access : 1877622
LLC-prefetch_hit : 1236396
LLC-prefetch_miss : 641226
LLC-writeback_access : 1061467
LLC-writeback_hit : 1059569
LLC-writeback_miss : 1898
LLC-prefetch_requested : 0
LLC-prefetch_issued : 0
LLC-prefetch_useful : 48401
LLC-prefetch_useless : 592003
LLC-Avg_miss_latency : 267.194
LLC-Morteza_fill_l2_prefetches : 920193

Major fault: 0 Minor fault: 24695
I-Shadow cache 408 bytes
Touched + WorthPF tables 24576 bytes 
MMA filter 174 bytes 
FNL filter 272 bytes 
TOTAL PREFETCHER STORAGE SIZE: 98134 bytes
CPU 0 L1I next line prefetcher final stats

 morteza stats start 

SHEET
fnlfilter_access_cntr : 24281616
iShadow_access_cntr : 42618774
missahead_access_cntr : 8328300
mmafilter_access_cntr : 13174478
touched_access_cntr : 62076420
worthpf_access_cntr : 22861994


morteza stats endCPU 0 L1D next line prefetcher final stats

DRAM Statistics
 CHANNEL 0
 RQ ROW_BUFFER_HIT:     378132  ROW_BUFFER_MISS:    1137103
 DBUS_CONGESTED:    1469742
 WQ ROW_BUFFER_HIT:     244723  ROW_BUFFER_MISS:     632112  FULL:          0

 AVG_CONGESTED_CYCLE: 6

CPU 0 Branch Prediction Accuracy: 99.2833% MPKI: 1.20568 Average ROB Occupancy at Mispredict: 181.272

Branch types
NOT_BRANCH: 41588350 83.1767%
BRANCH_DIRECT_JUMP: 464501 0.929002%
BRANCH_INDIRECT: 45704 0.091408%
BRANCH_CONDITIONAL: 6147408 12.2948%
BRANCH_DIRECT_CALL: 675450 1.3509%
BRANCH_INDIRECT_CALL: 201532 0.403064%
BRANCH_RETURN: 876985 1.75397%
BRANCH_OTHER: 0 0%

