Initialize SIGNATURE TABLE
ST_SET: 1
ST_WAY: 256
ST_TAG_BIT: 16
ST_TAG_MASK: ffff

Initialize PATTERN TABLE
PT_SET: 512
PT_WAY: 4
SIG_DELTA_BIT: 7
C_SIG_BIT: 4
C_DELTA_BIT: 4

Initialize PREFETCH FILTER
FILTER_SET: 1024

*** ChampSim Multicore Out-of-Order Simulator ***

Warmup Instructions: 50000000
Simulation Instructions: 50000000
Number of CPUs: 1
LLC sets: 2048
LLC ways: 16
Off-chip DRAM Size: 4096 MB Channels: 1 Width: 64-bit Data Rate: 3200 MT/s

CPU 0 runs /home/mbaradaran/ChampSim/dpc3_traces/server_028.champsimtrace.xz
CPU 0 L1I next line prefetcher
CPU 0 L1D next line prefetcher
Heartbeat CPU 0 instructions: 10000001 cycles: 3496410 heartbeat IPC: 2.86008 cumulative IPC: 2.86008 (Simulation time: 0 hr 1 min 30 sec) 
Heartbeat CPU 0 instructions: 20000002 cycles: 6993285 heartbeat IPC: 2.8597 cumulative IPC: 2.85989 (Simulation time: 0 hr 2 min 58 sec) 
Heartbeat CPU 0 instructions: 30000001 cycles: 10487782 heartbeat IPC: 2.86164 cumulative IPC: 2.86047 (Simulation time: 0 hr 4 min 25 sec) 
Heartbeat CPU 0 instructions: 40000002 cycles: 13989274 heartbeat IPC: 2.85593 cumulative IPC: 2.85933 (Simulation time: 0 hr 5 min 48 sec) 
Heartbeat CPU 0 instructions: 50000001 cycles: 17487805 heartbeat IPC: 2.85834 cumulative IPC: 2.85914 (Simulation time: 0 hr 7 min 8 sec) 

Warmup complete CPU 0 instructions: 50000001 cycles: 17487805 (Simulation time: 0 hr 7 min 8 sec) 

Heartbeat CPU 0 instructions: 60000000 cycles: 25029232 heartbeat IPC: 1.32601 cumulative IPC: 1.32601 (Simulation time: 0 hr 8 min 49 sec) 
Heartbeat CPU 0 instructions: 70000000 cycles: 32571300 heartbeat IPC: 1.3259 cumulative IPC: 1.32595 (Simulation time: 0 hr 10 min 24 sec) 
Heartbeat CPU 0 instructions: 80000000 cycles: 40122098 heartbeat IPC: 1.32436 cumulative IPC: 1.32542 (Simulation time: 0 hr 11 min 55 sec) 
*** Reached end of trace for Core: 0 Repeating trace: /home/mbaradaran/ChampSim/dpc3_traces/server_028.champsimtrace.xz
Heartbeat CPU 0 instructions: 90000000 cycles: 47645425 heartbeat IPC: 1.3292 cumulative IPC: 1.32636 (Simulation time: 0 hr 13 min 18 sec) 
Heartbeat CPU 0 instructions: 100000003 cycles: 55138246 heartbeat IPC: 1.33461 cumulative IPC: 1.32801 (Simulation time: 0 hr 14 min 41 sec) 
Finished CPU 0 instructions: 50000002 cycles: 37650441 cumulative IPC: 1.32801 (Simulation time: 0 hr 14 min 41 sec) 

ChampSim completed all CPUs

Region of Interest Statistics

CPU 0 cumulative IPC: 1.32801 instructions: 50000002 cycles: 37650441

SHEET
IPC : 1.32801

L1D TOTAL     ACCESS:   19072216  HIT:   16998679  MISS:    2073537
L1D LOAD      ACCESS:    6736861  HIT:    5688303  MISS:    1048558
L1D RFO       ACCESS:    6104468  HIT:    5820502  MISS:     283966
L1D PREFETCH  ACCESS:    6230887  HIT:    5489874  MISS:     741013
L1D WRITEBACK ACCESS:          0  HIT:          0  MISS:          0
L1D PREFETCH  REQUESTED:    6796377  ISSUED:    6687779  USEFUL:     174499  USELESS:     566517
L1D AVERAGE MISS LATENCY: 22.2034 cycles
L1D

SHEET
L1D-total_access : 19072216
L1D-total_hit : 16998679
L1D-total_miss : 2073537
L1D-load_access : 6736861
L1D-load_hit : 5688303
L1D-load_miss : 1048558
L1D-rfo_access : 6104468
L1D-rfo_hit : 5820502
L1D-rfo_miss : 283966
L1D-prefetch_access : 6230887
L1D-prefetch_hit : 5489874
L1D-prefetch_miss : 741013
L1D-writeback_access : 0
L1D-writeback_hit : 0
L1D-writeback_miss : 0
L1D-prefetch_requested : 6796377
L1D-prefetch_issued : 6687779
L1D-prefetch_useful : 174499
L1D-prefetch_useless : 566517
L1D-Avg_miss_latency : 22.2034
L1D-Morteza_fill_l2_prefetches : 0

L1I TOTAL     ACCESS:   15274974  HIT:   11095208  MISS:    4179766
L1I LOAD      ACCESS:    9766334  HIT:    9631463  MISS:     134871
L1I RFO       ACCESS:          0  HIT:          0  MISS:          0
L1I PREFETCH  ACCESS:    5508640  HIT:    1463745  MISS:    4044895
L1I WRITEBACK ACCESS:          0  HIT:          0  MISS:          0
L1I PREFETCH  REQUESTED:    5733929  ISSUED:    5733929  USEFUL:    2981021  USELESS:    1063872
L1I AVERAGE MISS LATENCY: 18.0284 cycles
L1I

SHEET
L1I-total_access : 15274974
L1I-total_hit : 11095208
L1I-total_miss : 4179766
L1I-load_access : 9766334
L1I-load_hit : 9631463
L1I-load_miss : 134871
L1I-rfo_access : 0
L1I-rfo_hit : 0
L1I-rfo_miss : 0
L1I-prefetch_access : 5508640
L1I-prefetch_hit : 1463745
L1I-prefetch_miss : 4044895
L1I-writeback_access : 0
L1I-writeback_hit : 0
L1I-writeback_miss : 0
L1I-prefetch_requested : 5733929
L1I-prefetch_issued : 5733929
L1I-prefetch_useful : 2981021
L1I-prefetch_useless : 1063872
L1I-Avg_miss_latency : 18.0284
L1I-Morteza_fill_l2_prefetches : 0

L2C TOTAL     ACCESS:    8569363  HIT:    7720503  MISS:     848860
L2C LOAD      ACCESS:     975862  HIT:     802520  MISS:     173342
L2C RFO       ACCESS:     281695  HIT:     218439  MISS:      63256
L2C PREFETCH  ACCESS:    6706758  HIT:    6098563  MISS:     608195
L2C WRITEBACK ACCESS:     605048  HIT:     600981  MISS:       4067
L2C PREFETCH  REQUESTED:    7720779  ISSUED:    7701397  USEFUL:      18606  USELESS:     589203
L2C AVERAGE MISS LATENCY: 39.8684 cycles
L2C

SHEET
L2C-total_access : 8569363
L2C-total_hit : 7720503
L2C-total_miss : 848860
L2C-load_access : 975862
L2C-load_hit : 802520
L2C-load_miss : 173342
L2C-rfo_access : 281695
L2C-rfo_hit : 218439
L2C-rfo_miss : 63256
L2C-prefetch_access : 6706758
L2C-prefetch_hit : 6098563
L2C-prefetch_miss : 608195
L2C-writeback_access : 605048
L2C-writeback_hit : 600981
L2C-writeback_miss : 4067
L2C-prefetch_requested : 7720779
L2C-prefetch_issued : 7701397
L2C-prefetch_useful : 18606
L2C-prefetch_useless : 589203
L2C-Avg_miss_latency : 39.8684
L2C-Morteza_fill_l2_prefetches : 1792774

LLC TOTAL     ACCESS:    2813486  HIT:    2742647  MISS:      70839
LLC LOAD      ACCESS:     173166  HIT:     157222  MISS:      15944
LLC RFO       ACCESS:      63237  HIT:      61284  MISS:       1953
LLC PREFETCH  ACCESS:    2463339  HIT:    2410843  MISS:      52496
LLC WRITEBACK ACCESS:     113744  HIT:     113298  MISS:        446
LLC PREFETCH  REQUESTED:          0  ISSUED:          0  USEFUL:       2397  USELESS:      49061
LLC AVERAGE MISS LATENCY: 156.957 cycles
LLC

SHEET
LLC-total_access : 2813486
LLC-total_hit : 2742647
LLC-total_miss : 70839
LLC-load_access : 173166
LLC-load_hit : 157222
LLC-load_miss : 15944
LLC-rfo_access : 63237
LLC-rfo_hit : 61284
LLC-rfo_miss : 1953
LLC-prefetch_access : 2463339
LLC-prefetch_hit : 2410843
LLC-prefetch_miss : 52496
LLC-writeback_access : 113744
LLC-writeback_hit : 113298
LLC-writeback_miss : 446
LLC-prefetch_requested : 0
LLC-prefetch_issued : 0
LLC-prefetch_useful : 2397
LLC-prefetch_useless : 49061
LLC-Avg_miss_latency : 156.957
LLC-Morteza_fill_l2_prefetches : 1849783

Major fault: 0 Minor fault: 6038
I-Shadow cache 408 bytes
Touched + WorthPF tables 24576 bytes 
MMA filter 174 bytes 
FNL filter 272 bytes 
TOTAL PREFETCHER STORAGE SIZE: 98134 bytes
CPU 0 L1I next line prefetcher final stats

 morteza stats start 

SHEET
fnlfilter_access_cntr : 29360638
iShadow_access_cntr : 42872078
missahead_access_cntr : 9100620
mmafilter_access_cntr : 15055911
touched_access_cntr : 68549590
worthpf_access_cntr : 28988911


morteza stats endCPU 0 L1D next line prefetcher final stats

DRAM Statistics
 CHANNEL 0
 RQ ROW_BUFFER_HIT:      19647  ROW_BUFFER_MISS:      50746
 DBUS_CONGESTED:      30211
 WQ ROW_BUFFER_HIT:        343  ROW_BUFFER_MISS:       3355  FULL:          0

 AVG_CONGESTED_CYCLE: 5

CPU 0 Branch Prediction Accuracy: 99.7093% MPKI: 0.54708 Average ROB Occupancy at Mispredict: 150.942

Branch types
NOT_BRANCH: 40590931 81.1819%
BRANCH_DIRECT_JUMP: 523494 1.04699%
BRANCH_INDIRECT: 166997 0.333994%
BRANCH_CONDITIONAL: 6365183 12.7304%
BRANCH_DIRECT_CALL: 989493 1.97899%
BRANCH_INDIRECT_CALL: 187203 0.374406%
BRANCH_RETURN: 1176698 2.3534%
BRANCH_OTHER: 0 0%

