Initialize SIGNATURE TABLE
ST_SET: 1
ST_WAY: 256
ST_TAG_BIT: 16
ST_TAG_MASK: ffff

Initialize PATTERN TABLE
PT_SET: 512
PT_WAY: 4
SIG_DELTA_BIT: 7
C_SIG_BIT: 4
C_DELTA_BIT: 4

Initialize PREFETCH FILTER
FILTER_SET: 1024

*** ChampSim Multicore Out-of-Order Simulator ***

Warmup Instructions: 50000000
Simulation Instructions: 50000000
Number of CPUs: 1
LLC sets: 2048
LLC ways: 16
Off-chip DRAM Size: 4096 MB Channels: 1 Width: 64-bit Data Rate: 3200 MT/s

CPU 0 runs /home/mbaradaran/ChampSim/dpc3_traces/server_025.champsimtrace.xz
CPU 0 L1I next line prefetcher
CPU 0 L1D next line prefetcher
Heartbeat CPU 0 instructions: 10000003 cycles: 3529127 heartbeat IPC: 2.83356 cumulative IPC: 2.83356 (Simulation time: 0 hr 1 min 25 sec) 
Heartbeat CPU 0 instructions: 20000000 cycles: 7065337 heartbeat IPC: 2.82789 cumulative IPC: 2.83072 (Simulation time: 0 hr 2 min 51 sec) 
Heartbeat CPU 0 instructions: 30000001 cycles: 10593981 heartbeat IPC: 2.83395 cumulative IPC: 2.8318 (Simulation time: 0 hr 4 min 17 sec) 
Heartbeat CPU 0 instructions: 40000003 cycles: 14128139 heartbeat IPC: 2.82953 cumulative IPC: 2.83123 (Simulation time: 0 hr 5 min 37 sec) 
Heartbeat CPU 0 instructions: 50000001 cycles: 17659727 heartbeat IPC: 2.83159 cumulative IPC: 2.8313 (Simulation time: 0 hr 7 min 5 sec) 

Warmup complete CPU 0 instructions: 50000001 cycles: 17659727 (Simulation time: 0 hr 7 min 5 sec) 

Heartbeat CPU 0 instructions: 60000002 cycles: 24499888 heartbeat IPC: 1.46195 cumulative IPC: 1.46195 (Simulation time: 0 hr 8 min 35 sec) 
Heartbeat CPU 0 instructions: 70000000 cycles: 31454547 heartbeat IPC: 1.43788 cumulative IPC: 1.44982 (Simulation time: 0 hr 10 min 3 sec) 
Heartbeat CPU 0 instructions: 80000002 cycles: 38321223 heartbeat IPC: 1.45631 cumulative IPC: 1.45198 (Simulation time: 0 hr 11 min 35 sec) 
Heartbeat CPU 0 instructions: 90000001 cycles: 44853323 heartbeat IPC: 1.5309 cumulative IPC: 1.47093 (Simulation time: 0 hr 13 min 3 sec) 
Heartbeat CPU 0 instructions: 100000003 cycles: 51089867 heartbeat IPC: 1.60345 cumulative IPC: 1.49566 (Simulation time: 0 hr 14 min 23 sec) 
Finished CPU 0 instructions: 50000002 cycles: 33430140 cumulative IPC: 1.49566 (Simulation time: 0 hr 14 min 23 sec) 

ChampSim completed all CPUs

Region of Interest Statistics

CPU 0 cumulative IPC: 1.49566 instructions: 50000002 cycles: 33430140

SHEET
IPC : 1.49566

L1D TOTAL     ACCESS:   20005734  HIT:   18580421  MISS:    1425313
L1D LOAD      ACCESS:    6971377  HIT:    6351726  MISS:     619651
L1D RFO       ACCESS:    6375060  HIT:    6126926  MISS:     248134
L1D PREFETCH  ACCESS:    6659297  HIT:    6101769  MISS:     557528
L1D WRITEBACK ACCESS:          0  HIT:          0  MISS:          0
L1D PREFETCH  REQUESTED:    7012820  ISSUED:    6838773  USEFUL:     130338  USELESS:     427183
L1D AVERAGE MISS LATENCY: 23.5794 cycles
L1D

SHEET
L1D-total_access : 20005734
L1D-total_hit : 18580421
L1D-total_miss : 1425313
L1D-load_access : 6971377
L1D-load_hit : 6351726
L1D-load_miss : 619651
L1D-rfo_access : 6375060
L1D-rfo_hit : 6126926
L1D-rfo_miss : 248134
L1D-prefetch_access : 6659297
L1D-prefetch_hit : 6101769
L1D-prefetch_miss : 557528
L1D-writeback_access : 0
L1D-writeback_hit : 0
L1D-writeback_miss : 0
L1D-prefetch_requested : 7012820
L1D-prefetch_issued : 6838773
L1D-prefetch_useful : 130338
L1D-prefetch_useless : 427183
L1D-Avg_miss_latency : 23.5794
L1D-Morteza_fill_l2_prefetches : 0

L1I TOTAL     ACCESS:   14228990  HIT:   10602879  MISS:    3626111
L1I LOAD      ACCESS:    9482813  HIT:    9339759  MISS:     143054
L1I RFO       ACCESS:          0  HIT:          0  MISS:          0
L1I PREFETCH  ACCESS:    4746177  HIT:    1263120  MISS:    3483057
L1I WRITEBACK ACCESS:          0  HIT:          0  MISS:          0
L1I PREFETCH  REQUESTED:    4943556  ISSUED:    4943030  USEFUL:    2482197  USELESS:    1000862
L1I AVERAGE MISS LATENCY: 18.613 cycles
L1I

SHEET
L1I-total_access : 14228990
L1I-total_hit : 10602879
L1I-total_miss : 3626111
L1I-load_access : 9482813
L1I-load_hit : 9339759
L1I-load_miss : 143054
L1I-rfo_access : 0
L1I-rfo_hit : 0
L1I-rfo_miss : 0
L1I-prefetch_access : 4746177
L1I-prefetch_hit : 1263120
L1I-prefetch_miss : 3483057
L1I-writeback_access : 0
L1I-writeback_hit : 0
L1I-writeback_miss : 0
L1I-prefetch_requested : 4943556
L1I-prefetch_issued : 4943030
L1I-prefetch_useful : 2482197
L1I-prefetch_useless : 1000862
L1I-Avg_miss_latency : 18.613
L1I-Morteza_fill_l2_prefetches : 0

L2C TOTAL     ACCESS:    6757417  HIT:    5989811  MISS:     767606
L2C LOAD      ACCESS:     676564  HIT:     557237  MISS:     119327
L2C RFO       ACCESS:     246751  HIT:     167667  MISS:      79084
L2C PREFETCH  ACCESS:    5337339  HIT:    4772147  MISS:     565192
L2C WRITEBACK ACCESS:     496763  HIT:     492760  MISS:       4003
L2C PREFETCH  REQUESTED:    6107918  ISSUED:    6093403  USEFUL:      20604  USELESS:     544362
L2C AVERAGE MISS LATENCY: 38.4468 cycles
L2C

SHEET
L2C-total_access : 6757417
L2C-total_hit : 5989811
L2C-total_miss : 767606
L2C-load_access : 676564
L2C-load_hit : 557237
L2C-load_miss : 119327
L2C-rfo_access : 246751
L2C-rfo_hit : 167667
L2C-rfo_miss : 79084
L2C-prefetch_access : 5337339
L2C-prefetch_hit : 4772147
L2C-prefetch_miss : 565192
L2C-writeback_access : 496763
L2C-writeback_hit : 492760
L2C-writeback_miss : 4003
L2C-prefetch_requested : 6107918
L2C-prefetch_issued : 6093403
L2C-prefetch_useful : 20604
L2C-prefetch_useless : 544362
L2C-Avg_miss_latency : 38.4468
L2C-Morteza_fill_l2_prefetches : 1253941

LLC TOTAL     ACCESS:    2361874  HIT:    2332464  MISS:      29410
LLC LOAD      ACCESS:     119202  HIT:     115950  MISS:       3252
LLC RFO       ACCESS:      79077  HIT:      68378  MISS:      10699
LLC PREFETCH  ACCESS:    2027894  HIT:    2012648  MISS:      15246
LLC WRITEBACK ACCESS:     135701  HIT:     135488  MISS:        213
LLC PREFETCH  REQUESTED:          0  ISSUED:          0  USEFUL:       1271  USELESS:      13043
LLC AVERAGE MISS LATENCY: 180.207 cycles
LLC

SHEET
LLC-total_access : 2361874
LLC-total_hit : 2332464
LLC-total_miss : 29410
LLC-load_access : 119202
LLC-load_hit : 115950
LLC-load_miss : 3252
LLC-rfo_access : 79077
LLC-rfo_hit : 68378
LLC-rfo_miss : 10699
LLC-prefetch_access : 2027894
LLC-prefetch_hit : 2012648
LLC-prefetch_miss : 15246
LLC-writeback_access : 135701
LLC-writeback_hit : 135488
LLC-writeback_miss : 213
LLC-prefetch_requested : 0
LLC-prefetch_issued : 0
LLC-prefetch_useful : 1271
LLC-prefetch_useless : 13043
LLC-Avg_miss_latency : 180.207
LLC-Morteza_fill_l2_prefetches : 1473466

Major fault: 0 Minor fault: 2458
I-Shadow cache 408 bytes
Touched + WorthPF tables 24576 bytes 
MMA filter 174 bytes 
FNL filter 272 bytes 
TOTAL PREFETCHER STORAGE SIZE: 98134 bytes
CPU 0 L1I next line prefetcher final stats

 morteza stats start 

SHEET
fnlfilter_access_cntr : 27010314
iShadow_access_cntr : 42073866
missahead_access_cntr : 8190739
mmafilter_access_cntr : 13810575
touched_access_cntr : 63206250
worthpf_access_cntr : 27042686


morteza stats endCPU 0 L1D next line prefetcher final stats

DRAM Statistics
 CHANNEL 0
 RQ ROW_BUFFER_HIT:       9331  ROW_BUFFER_MISS:      19859
 DBUS_CONGESTED:      19365
 WQ ROW_BUFFER_HIT:       1335  ROW_BUFFER_MISS:      11995  FULL:          0

 AVG_CONGESTED_CYCLE: 6

CPU 0 Branch Prediction Accuracy: 99.8142% MPKI: 0.34676 Average ROB Occupancy at Mispredict: 198.363

Branch types
NOT_BRANCH: 40668905 81.3378%
BRANCH_DIRECT_JUMP: 531700 1.0634%
BRANCH_INDIRECT: 199025 0.39805%
BRANCH_CONDITIONAL: 6211494 12.423%
BRANCH_DIRECT_CALL: 1010911 2.02182%
BRANCH_INDIRECT_CALL: 183501 0.367002%
BRANCH_RETURN: 1194415 2.38883%
BRANCH_OTHER: 0 0%

