Initialize SIGNATURE TABLE
ST_SET: 1
ST_WAY: 256
ST_TAG_BIT: 16
ST_TAG_MASK: ffff

Initialize PATTERN TABLE
PT_SET: 512
PT_WAY: 4
SIG_DELTA_BIT: 7
C_SIG_BIT: 4
C_DELTA_BIT: 4

Initialize PREFETCH FILTER
FILTER_SET: 1024

*** ChampSim Multicore Out-of-Order Simulator ***

Warmup Instructions: 50000000
Simulation Instructions: 50000000
Number of CPUs: 1
LLC sets: 2048
LLC ways: 16
Off-chip DRAM Size: 4096 MB Channels: 1 Width: 64-bit Data Rate: 3200 MT/s

CPU 0 runs /home/mbaradaran/ChampSim/dpc3_traces/spec_gobmk_001.champsimtrace.xz
CPU 0 L1I next line prefetcher
CPU 0 L1D next line prefetcher
Heartbeat CPU 0 instructions: 10000003 cycles: 3508704 heartbeat IPC: 2.85006 cumulative IPC: 2.85006 (Simulation time: 0 hr 1 min 6 sec) 
Heartbeat CPU 0 instructions: 20000002 cycles: 6989049 heartbeat IPC: 2.87328 cumulative IPC: 2.86162 (Simulation time: 0 hr 2 min 8 sec) 
Heartbeat CPU 0 instructions: 30000002 cycles: 10508065 heartbeat IPC: 2.8417 cumulative IPC: 2.85495 (Simulation time: 0 hr 3 min 8 sec) 
Heartbeat CPU 0 instructions: 40000001 cycles: 14027262 heartbeat IPC: 2.84156 cumulative IPC: 2.85159 (Simulation time: 0 hr 4 min 10 sec) 
Heartbeat CPU 0 instructions: 50000001 cycles: 17567208 heartbeat IPC: 2.8249 cumulative IPC: 2.84621 (Simulation time: 0 hr 5 min 11 sec) 

Warmup complete CPU 0 instructions: 50000001 cycles: 17567208 (Simulation time: 0 hr 5 min 11 sec) 

Heartbeat CPU 0 instructions: 60000000 cycles: 26641954 heartbeat IPC: 1.10196 cumulative IPC: 1.10196 (Simulation time: 0 hr 5 min 59 sec) 
Heartbeat CPU 0 instructions: 70000002 cycles: 35392728 heartbeat IPC: 1.14276 cumulative IPC: 1.12199 (Simulation time: 0 hr 6 min 44 sec) 
Heartbeat CPU 0 instructions: 80000003 cycles: 44480080 heartbeat IPC: 1.10043 cumulative IPC: 1.11471 (Simulation time: 0 hr 7 min 30 sec) 
Heartbeat CPU 0 instructions: 90000001 cycles: 53188383 heartbeat IPC: 1.14833 cumulative IPC: 1.12293 (Simulation time: 0 hr 8 min 15 sec) 
Heartbeat CPU 0 instructions: 100000003 cycles: 62254266 heartbeat IPC: 1.10304 cumulative IPC: 1.11889 (Simulation time: 0 hr 9 min 1 sec) 
Finished CPU 0 instructions: 50000002 cycles: 44687058 cumulative IPC: 1.11889 (Simulation time: 0 hr 9 min 1 sec) 

ChampSim completed all CPUs

Region of Interest Statistics

CPU 0 cumulative IPC: 1.11889 instructions: 50000002 cycles: 44687058

SHEET
IPC : 1.11889

L1D TOTAL     ACCESS:   18110990  HIT:   17731428  MISS:     379562
L1D LOAD      ACCESS:    7272789  HIT:    7138188  MISS:     134601
L1D RFO       ACCESS:    3704711  HIT:    3600220  MISS:     104491
L1D PREFETCH  ACCESS:    7133490  HIT:    6993020  MISS:     140470
L1D WRITEBACK ACCESS:          0  HIT:          0  MISS:          0
L1D PREFETCH  REQUESTED:    7277964  ISSUED:    7194956  USEFUL:      45780  USELESS:      94696
L1D AVERAGE MISS LATENCY: 34.1747 cycles
L1D

SHEET
L1D-total_access : 18110990
L1D-total_hit : 17731428
L1D-total_miss : 379562
L1D-load_access : 7272789
L1D-load_hit : 7138188
L1D-load_miss : 134601
L1D-rfo_access : 3704711
L1D-rfo_hit : 3600220
L1D-rfo_miss : 104491
L1D-prefetch_access : 7133490
L1D-prefetch_hit : 6993020
L1D-prefetch_miss : 140470
L1D-writeback_access : 0
L1D-writeback_hit : 0
L1D-writeback_miss : 0
L1D-prefetch_requested : 7277964
L1D-prefetch_issued : 7194956
L1D-prefetch_useful : 45780
L1D-prefetch_useless : 94696
L1D-Avg_miss_latency : 34.1747
L1D-Morteza_fill_l2_prefetches : 0

L1I TOTAL     ACCESS:   12093798  HIT:   10725047  MISS:    1368751
L1I LOAD      ACCESS:    8982323  HIT:    8724168  MISS:     258155
L1I RFO       ACCESS:          0  HIT:          0  MISS:          0
L1I PREFETCH  ACCESS:    3111475  HIT:    2000879  MISS:    1110596
L1I WRITEBACK ACCESS:          0  HIT:          0  MISS:          0
L1I PREFETCH  REQUESTED:    3245464  ISSUED:    3245451  USEFUL:     613877  USELESS:     496684
L1I AVERAGE MISS LATENCY: 14.8239 cycles
L1I

SHEET
L1I-total_access : 12093798
L1I-total_hit : 10725047
L1I-total_miss : 1368751
L1I-load_access : 8982323
L1I-load_hit : 8724168
L1I-load_miss : 258155
L1I-rfo_access : 0
L1I-rfo_hit : 0
L1I-rfo_miss : 0
L1I-prefetch_access : 3111475
L1I-prefetch_hit : 2000879
L1I-prefetch_miss : 1110596
L1I-writeback_access : 0
L1I-writeback_hit : 0
L1I-writeback_miss : 0
L1I-prefetch_requested : 3245464
L1I-prefetch_issued : 3245451
L1I-prefetch_useful : 613877
L1I-prefetch_useless : 496684
L1I-Avg_miss_latency : 14.8239
L1I-Morteza_fill_l2_prefetches : 0

L2C TOTAL     ACCESS:    2676805  HIT:    2553021  MISS:     123784
L2C LOAD      ACCESS:     338936  HIT:     303391  MISS:      35545
L2C RFO       ACCESS:     104121  HIT:      70376  MISS:      33745
L2C PREFETCH  ACCESS:    2094461  HIT:    2040038  MISS:      54423
L2C WRITEBACK ACCESS:     139287  HIT:     139216  MISS:         71
L2C PREFETCH  REQUESTED:    2044490  ISSUED:    2044254  USEFUL:       4968  USELESS:      49839
L2C AVERAGE MISS LATENCY: 67.6593 cycles
L2C

SHEET
L2C-total_access : 2676805
L2C-total_hit : 2553021
L2C-total_miss : 123784
L2C-load_access : 338936
L2C-load_hit : 303391
L2C-load_miss : 35545
L2C-rfo_access : 104121
L2C-rfo_hit : 70376
L2C-rfo_miss : 33745
L2C-prefetch_access : 2094461
L2C-prefetch_hit : 2040038
L2C-prefetch_miss : 54423
L2C-writeback_access : 139287
L2C-writeback_hit : 139216
L2C-writeback_miss : 71
L2C-prefetch_requested : 2044490
L2C-prefetch_issued : 2044254
L2C-prefetch_useful : 4968
L2C-prefetch_useless : 49839
L2C-Avg_miss_latency : 67.6593
L2C-Morteza_fill_l2_prefetches : 818884

LLC TOTAL     ACCESS:     343521  HIT:     301837  MISS:      41684
LLC LOAD      ACCESS:      35542  HIT:      27203  MISS:       8339
LLC RFO       ACCESS:      33745  HIT:      25849  MISS:       7896
LLC PREFETCH  ACCESS:     229745  HIT:     204620  MISS:      25125
LLC WRITEBACK ACCESS:      44489  HIT:      44165  MISS:        324
LLC PREFETCH  REQUESTED:          0  ISSUED:          0  USEFUL:       1507  USELESS:      21597
LLC AVERAGE MISS LATENCY: 180.489 cycles
LLC

SHEET
LLC-total_access : 343521
LLC-total_hit : 301837
LLC-total_miss : 41684
LLC-load_access : 35542
LLC-load_hit : 27203
LLC-load_miss : 8339
LLC-rfo_access : 33745
LLC-rfo_hit : 25849
LLC-rfo_miss : 7896
LLC-prefetch_access : 229745
LLC-prefetch_hit : 204620
LLC-prefetch_miss : 25125
LLC-writeback_access : 44489
LLC-writeback_hit : 44165
LLC-writeback_miss : 324
LLC-prefetch_requested : 0
LLC-prefetch_issued : 0
LLC-prefetch_useful : 1507
LLC-prefetch_useless : 21597
LLC-Avg_miss_latency : 180.489
LLC-Morteza_fill_l2_prefetches : 161417

Major fault: 0 Minor fault: 4157
I-Shadow cache 408 bytes
Touched + WorthPF tables 24576 bytes 
MMA filter 174 bytes 
FNL filter 272 bytes 
TOTAL PREFETCHER STORAGE SIZE: 98134 bytes
CPU 0 L1I next line prefetcher final stats

 morteza stats start 

SHEET
fnlfilter_access_cntr : 16767099
iShadow_access_cntr : 40880714
missahead_access_cntr : 4372241
mmafilter_access_cntr : 4512783
touched_access_cntr : 28388810
worthpf_access_cntr : 16105702


morteza stats endCPU 0 L1D next line prefetcher final stats

DRAM Statistics
 CHANNEL 0
 RQ ROW_BUFFER_HIT:       5489  ROW_BUFFER_MISS:      35870
 DBUS_CONGESTED:      26904
 WQ ROW_BUFFER_HIT:       1777  ROW_BUFFER_MISS:      16419  FULL:          0

 AVG_CONGESTED_CYCLE: 5

CPU 0 Branch Prediction Accuracy: 94.7729% MPKI: 9.72684 Average ROB Occupancy at Mispredict: 51.6931

Branch types
NOT_BRANCH: 40695380 81.3908%
BRANCH_DIRECT_JUMP: 422107 0.844214%
BRANCH_INDIRECT: 65 0.00013%
BRANCH_CONDITIONAL: 8105005 16.21%
BRANCH_DIRECT_CALL: 374913 0.749826%
BRANCH_INDIRECT_CALL: 13657 0.027314%
BRANCH_RETURN: 388556 0.777112%
BRANCH_OTHER: 0 0%

