Initialize SIGNATURE TABLE
ST_SET: 1
ST_WAY: 256
ST_TAG_BIT: 16
ST_TAG_MASK: ffff

Initialize PATTERN TABLE
PT_SET: 512
PT_WAY: 4
SIG_DELTA_BIT: 7
C_SIG_BIT: 4
C_DELTA_BIT: 4

Initialize PREFETCH FILTER
FILTER_SET: 1024

*** ChampSim Multicore Out-of-Order Simulator ***

Warmup Instructions: 50000000
Simulation Instructions: 50000000
Number of CPUs: 1
LLC sets: 2048
LLC ways: 16
Off-chip DRAM Size: 4096 MB Channels: 1 Width: 64-bit Data Rate: 3200 MT/s

CPU 0 runs /home/mbaradaran/ChampSim/dpc3_traces/spec_gcc_001.champsimtrace.xz
CPU 0 L1I next line prefetcher
CPU 0 L1D next line prefetcher
Heartbeat CPU 0 instructions: 10000003 cycles: 3219165 heartbeat IPC: 3.1064 cumulative IPC: 3.1064 (Simulation time: 0 hr 1 min 16 sec) 
Heartbeat CPU 0 instructions: 20000002 cycles: 6463737 heartbeat IPC: 3.08207 cumulative IPC: 3.09419 (Simulation time: 0 hr 2 min 30 sec) 
Heartbeat CPU 0 instructions: 30000000 cycles: 9664383 heartbeat IPC: 3.12437 cumulative IPC: 3.10418 (Simulation time: 0 hr 3 min 44 sec) 
Heartbeat CPU 0 instructions: 40000001 cycles: 12906183 heartbeat IPC: 3.08471 cumulative IPC: 3.09929 (Simulation time: 0 hr 5 min 2 sec) 
Heartbeat CPU 0 instructions: 50000001 cycles: 16146505 heartbeat IPC: 3.08611 cumulative IPC: 3.09665 (Simulation time: 0 hr 6 min 11 sec) 

Warmup complete CPU 0 instructions: 50000001 cycles: 16146505 (Simulation time: 0 hr 6 min 11 sec) 

Heartbeat CPU 0 instructions: 60000000 cycles: 24008266 heartbeat IPC: 1.27198 cumulative IPC: 1.27198 (Simulation time: 0 hr 7 min 9 sec) 
Heartbeat CPU 0 instructions: 70000002 cycles: 31978963 heartbeat IPC: 1.2546 cumulative IPC: 1.26323 (Simulation time: 0 hr 8 min 10 sec) 
Heartbeat CPU 0 instructions: 80000000 cycles: 39711685 heartbeat IPC: 1.29321 cumulative IPC: 1.27306 (Simulation time: 0 hr 9 min 8 sec) 
Heartbeat CPU 0 instructions: 90000001 cycles: 47683518 heartbeat IPC: 1.25442 cumulative IPC: 1.26835 (Simulation time: 0 hr 10 min 9 sec) 
Heartbeat CPU 0 instructions: 100000000 cycles: 55894612 heartbeat IPC: 1.21786 cumulative IPC: 1.25792 (Simulation time: 0 hr 11 min 9 sec) 
Finished CPU 0 instructions: 50000000 cycles: 39748111 cumulative IPC: 1.25792 (Simulation time: 0 hr 11 min 9 sec) 

ChampSim completed all CPUs

Region of Interest Statistics

CPU 0 cumulative IPC: 1.25792 instructions: 50000000 cycles: 39748111

SHEET
IPC : 1.25792

L1D TOTAL     ACCESS:   19454551  HIT:   18349392  MISS:    1105159
L1D LOAD      ACCESS:    7296591  HIT:    6817372  MISS:     479219
L1D RFO       ACCESS:    5121913  HIT:    5042265  MISS:      79648
L1D PREFETCH  ACCESS:    7036047  HIT:    6489755  MISS:     546292
L1D WRITEBACK ACCESS:          0  HIT:          0  MISS:          0
L1D PREFETCH  REQUESTED:    7340267  ISSUED:    7240072  USEFUL:     276052  USELESS:     270253
L1D AVERAGE MISS LATENCY: 25.516 cycles
L1D

SHEET
L1D-total_access : 19454551
L1D-total_hit : 18349392
L1D-total_miss : 1105159
L1D-load_access : 7296591
L1D-load_hit : 6817372
L1D-load_miss : 479219
L1D-rfo_access : 5121913
L1D-rfo_hit : 5042265
L1D-rfo_miss : 79648
L1D-prefetch_access : 7036047
L1D-prefetch_hit : 6489755
L1D-prefetch_miss : 546292
L1D-writeback_access : 0
L1D-writeback_hit : 0
L1D-writeback_miss : 0
L1D-prefetch_requested : 7340267
L1D-prefetch_issued : 7240072
L1D-prefetch_useful : 276052
L1D-prefetch_useless : 270253
L1D-Avg_miss_latency : 25.516
L1D-Morteza_fill_l2_prefetches : 0

L1I TOTAL     ACCESS:   10956177  HIT:   10125446  MISS:     830731
L1I LOAD      ACCESS:    9325487  HIT:    9081166  MISS:     244321
L1I RFO       ACCESS:          0  HIT:          0  MISS:          0
L1I PREFETCH  ACCESS:    1630690  HIT:    1044280  MISS:     586410
L1I WRITEBACK ACCESS:          0  HIT:          0  MISS:          0
L1I PREFETCH  REQUESTED:    1709938  ISSUED:    1709938  USEFUL:     353786  USELESS:     232636
L1I AVERAGE MISS LATENCY: 19.0546 cycles
L1I

SHEET
L1I-total_access : 10956177
L1I-total_hit : 10125446
L1I-total_miss : 830731
L1I-load_access : 9325487
L1I-load_hit : 9081166
L1I-load_miss : 244321
L1I-rfo_access : 0
L1I-rfo_hit : 0
L1I-rfo_miss : 0
L1I-prefetch_access : 1630690
L1I-prefetch_hit : 1044280
L1I-prefetch_miss : 586410
L1I-writeback_access : 0
L1I-writeback_hit : 0
L1I-writeback_miss : 0
L1I-prefetch_requested : 1709938
L1I-prefetch_issued : 1709938
L1I-prefetch_useful : 353786
L1I-prefetch_useless : 232636
L1I-Avg_miss_latency : 19.0546
L1I-Morteza_fill_l2_prefetches : 0

L2C TOTAL     ACCESS:    3231979  HIT:    2981898  MISS:     250081
L2C LOAD      ACCESS:     677031  HIT:     597607  MISS:      79424
L2C RFO       ACCESS:      75043  HIT:      36485  MISS:      38558
L2C PREFETCH  ACCESS:    2226145  HIT:    2094492  MISS:     131653
L2C WRITEBACK ACCESS:     253760  HIT:     253314  MISS:        446
L2C PREFETCH  REQUESTED:    2287837  ISSUED:    2287642  USEFUL:      34483  USELESS:      96879
L2C AVERAGE MISS LATENCY: 67.6297 cycles
L2C

SHEET
L2C-total_access : 3231979
L2C-total_hit : 2981898
L2C-total_miss : 250081
L2C-load_access : 677031
L2C-load_hit : 597607
L2C-load_miss : 79424
L2C-rfo_access : 75043
L2C-rfo_hit : 36485
L2C-rfo_miss : 38558
L2C-prefetch_access : 2226145
L2C-prefetch_hit : 2094492
L2C-prefetch_miss : 131653
L2C-writeback_access : 253760
L2C-writeback_hit : 253314
L2C-writeback_miss : 446
L2C-prefetch_requested : 2287837
L2C-prefetch_issued : 2287642
L2C-prefetch_useful : 34483
L2C-prefetch_useless : 96879
L2C-Avg_miss_latency : 67.6297
L2C-Morteza_fill_l2_prefetches : 1055679

LLC TOTAL     ACCESS:     693992  HIT:     617157  MISS:      76835
LLC LOAD      ACCESS:      79214  HIT:      70170  MISS:       9044
LLC RFO       ACCESS:      38556  HIT:      17741  MISS:      20815
LLC PREFETCH  ACCESS:     484138  HIT:     438444  MISS:      45694
LLC WRITEBACK ACCESS:      92084  HIT:      90802  MISS:       1282
LLC PREFETCH  REQUESTED:          0  ISSUED:          0  USEFUL:      10792  USELESS:      38307
LLC AVERAGE MISS LATENCY: 186.927 cycles
LLC

SHEET
LLC-total_access : 693992
LLC-total_hit : 617157
LLC-total_miss : 76835
LLC-load_access : 79214
LLC-load_hit : 70170
LLC-load_miss : 9044
LLC-rfo_access : 38556
LLC-rfo_hit : 17741
LLC-rfo_miss : 20815
LLC-prefetch_access : 484138
LLC-prefetch_hit : 438444
LLC-prefetch_miss : 45694
LLC-writeback_access : 92084
LLC-writeback_hit : 90802
LLC-writeback_miss : 1282
LLC-prefetch_requested : 0
LLC-prefetch_issued : 0
LLC-prefetch_useful : 10792
LLC-prefetch_useless : 38307
LLC-Avg_miss_latency : 186.927
LLC-Morteza_fill_l2_prefetches : 330366

Major fault: 0 Minor fault: 6868
I-Shadow cache 408 bytes
Touched + WorthPF tables 24576 bytes 
MMA filter 174 bytes 
FNL filter 272 bytes 
TOTAL PREFETCHER STORAGE SIZE: 98134 bytes
CPU 0 L1I next line prefetcher final stats

 morteza stats start 

SHEET
fnlfilter_access_cntr : 10310379
iShadow_access_cntr : 41510360
missahead_access_cntr : 2838683
mmafilter_access_cntr : 3211694
touched_access_cntr : 23830040
worthpf_access_cntr : 10449332


morteza stats endCPU 0 L1D next line prefetcher final stats

DRAM Statistics
 CHANNEL 0
 RQ ROW_BUFFER_HIT:      20442  ROW_BUFFER_MISS:      55109
 DBUS_CONGESTED:      44576
 WQ ROW_BUFFER_HIT:       4040  ROW_BUFFER_MISS:      24696  FULL:          0

 AVG_CONGESTED_CYCLE: 6

CPU 0 Branch Prediction Accuracy: 95.8872% MPKI: 9.67286 Average ROB Occupancy at Mispredict: 62.6769

Branch types
NOT_BRANCH: 38240102 76.4802%
BRANCH_DIRECT_JUMP: 653296 1.30659%
BRANCH_INDIRECT: 37098 0.074196%
BRANCH_CONDITIONAL: 8897819 17.7956%
BRANCH_DIRECT_CALL: 992620 1.98524%
BRANCH_INDIRECT_CALL: 93046 0.186092%
BRANCH_RETURN: 1085674 2.17135%
BRANCH_OTHER: 0 0%

