Initialize SIGNATURE TABLE
ST_SET: 1
ST_WAY: 256
ST_TAG_BIT: 16
ST_TAG_MASK: ffff

Initialize PATTERN TABLE
PT_SET: 512
PT_WAY: 4
SIG_DELTA_BIT: 7
C_SIG_BIT: 4
C_DELTA_BIT: 4

Initialize PREFETCH FILTER
FILTER_SET: 1024

*** ChampSim Multicore Out-of-Order Simulator ***

Warmup Instructions: 50000000
Simulation Instructions: 50000000
Number of CPUs: 1
LLC sets: 2048
LLC ways: 16
Off-chip DRAM Size: 4096 MB Channels: 1 Width: 64-bit Data Rate: 3200 MT/s

CPU 0 runs /home/mbaradaran/ChampSim/dpc3_traces/spec_x264_001.champsimtrace.xz
CPU 0 L1I next line prefetcher
CPU 0 L1D next line prefetcher
Heartbeat CPU 0 instructions: 10000002 cycles: 3060219 heartbeat IPC: 3.26774 cumulative IPC: 3.26774 (Simulation time: 0 hr 0 min 52 sec) 
Heartbeat CPU 0 instructions: 20000002 cycles: 6110658 heartbeat IPC: 3.27822 cumulative IPC: 3.27297 (Simulation time: 0 hr 1 min 44 sec) 
Heartbeat CPU 0 instructions: 30000002 cycles: 9146565 heartbeat IPC: 3.29391 cumulative IPC: 3.27992 (Simulation time: 0 hr 2 min 33 sec) 
Heartbeat CPU 0 instructions: 40000000 cycles: 12191471 heartbeat IPC: 3.28417 cumulative IPC: 3.28098 (Simulation time: 0 hr 3 min 24 sec) 
Heartbeat CPU 0 instructions: 50000000 cycles: 15234807 heartbeat IPC: 3.28587 cumulative IPC: 3.28196 (Simulation time: 0 hr 4 min 12 sec) 

Warmup complete CPU 0 instructions: 50000004 cycles: 15234808 (Simulation time: 0 hr 4 min 12 sec) 

Heartbeat CPU 0 instructions: 60000002 cycles: 21168664 heartbeat IPC: 1.68524 cumulative IPC: 1.68524 (Simulation time: 0 hr 4 min 44 sec) 
Heartbeat CPU 0 instructions: 70000000 cycles: 27081274 heartbeat IPC: 1.6913 cumulative IPC: 1.68827 (Simulation time: 0 hr 5 min 16 sec) 
Heartbeat CPU 0 instructions: 80000003 cycles: 33139172 heartbeat IPC: 1.65074 cumulative IPC: 1.67557 (Simulation time: 0 hr 5 min 48 sec) 
Heartbeat CPU 0 instructions: 90000002 cycles: 39173781 heartbeat IPC: 1.65711 cumulative IPC: 1.67092 (Simulation time: 0 hr 6 min 19 sec) 
Heartbeat CPU 0 instructions: 100000002 cycles: 45072028 heartbeat IPC: 1.69542 cumulative IPC: 1.67576 (Simulation time: 0 hr 6 min 50 sec) 
Finished CPU 0 instructions: 50000002 cycles: 29837221 cumulative IPC: 1.67576 (Simulation time: 0 hr 6 min 50 sec) 

ChampSim completed all CPUs

Region of Interest Statistics

CPU 0 cumulative IPC: 1.67576 instructions: 50000002 cycles: 29837221

SHEET
IPC : 1.67576

L1D TOTAL     ACCESS:   12965430  HIT:   12804339  MISS:     161091
L1D LOAD      ACCESS:    5094980  HIT:    5039821  MISS:      55159
L1D RFO       ACCESS:    2880704  HIT:    2846452  MISS:      34252
L1D PREFETCH  ACCESS:    4989746  HIT:    4918066  MISS:      71680
L1D WRITEBACK ACCESS:          0  HIT:          0  MISS:          0
L1D PREFETCH  REQUESTED:    5111488  ISSUED:    5044725  USEFUL:      25795  USELESS:      45694
L1D AVERAGE MISS LATENCY: 39.6911 cycles
L1D

SHEET
L1D-total_access : 12965430
L1D-total_hit : 12804339
L1D-total_miss : 161091
L1D-load_access : 5094980
L1D-load_hit : 5039821
L1D-load_miss : 55159
L1D-rfo_access : 2880704
L1D-rfo_hit : 2846452
L1D-rfo_miss : 34252
L1D-prefetch_access : 4989746
L1D-prefetch_hit : 4918066
L1D-prefetch_miss : 71680
L1D-writeback_access : 0
L1D-writeback_hit : 0
L1D-writeback_miss : 0
L1D-prefetch_requested : 5111488
L1D-prefetch_issued : 5044725
L1D-prefetch_useful : 25795
L1D-prefetch_useless : 45694
L1D-Avg_miss_latency : 39.6911
L1D-Morteza_fill_l2_prefetches : 0

L1I TOTAL     ACCESS:    8570150  HIT:    8226668  MISS:     343482
L1I LOAD      ACCESS:    8040056  HIT:    8033328  MISS:       6728
L1I RFO       ACCESS:          0  HIT:          0  MISS:          0
L1I PREFETCH  ACCESS:     530094  HIT:     193340  MISS:     336754
L1I WRITEBACK ACCESS:          0  HIT:          0  MISS:          0
L1I PREFETCH  REQUESTED:     540343  ISSUED:     540343  USEFUL:     270816  USELESS:      65941
L1I AVERAGE MISS LATENCY: 14.7505 cycles
L1I

SHEET
L1I-total_access : 8570150
L1I-total_hit : 8226668
L1I-total_miss : 343482
L1I-load_access : 8040056
L1I-load_hit : 8033328
L1I-load_miss : 6728
L1I-rfo_access : 0
L1I-rfo_hit : 0
L1I-rfo_miss : 0
L1I-prefetch_access : 530094
L1I-prefetch_hit : 193340
L1I-prefetch_miss : 336754
L1I-writeback_access : 0
L1I-writeback_hit : 0
L1I-writeback_miss : 0
L1I-prefetch_requested : 540343
L1I-prefetch_issued : 540343
L1I-prefetch_useful : 270816
L1I-prefetch_useless : 65941
L1I-Avg_miss_latency : 14.7505
L1I-Morteza_fill_l2_prefetches : 0

L2C TOTAL     ACCESS:     722845  HIT:     684203  MISS:      38642
L2C LOAD      ACCESS:      60119  HIT:      54739  MISS:       5380
L2C RFO       ACCESS:      34005  HIT:      21932  MISS:      12073
L2C PREFETCH  ACCESS:     585671  HIT:     564553  MISS:      21118
L2C WRITEBACK ACCESS:      43050  HIT:      42979  MISS:         71
L2C PREFETCH  REQUESTED:     537793  ISSUED:     536437  USEFUL:       8867  USELESS:      12419
L2C AVERAGE MISS LATENCY: 103.966 cycles
L2C

SHEET
L2C-total_access : 722845
L2C-total_hit : 684203
L2C-total_miss : 38642
L2C-load_access : 60119
L2C-load_hit : 54739
L2C-load_miss : 5380
L2C-rfo_access : 34005
L2C-rfo_hit : 21932
L2C-rfo_miss : 12073
L2C-prefetch_access : 585671
L2C-prefetch_hit : 564553
L2C-prefetch_miss : 21118
L2C-writeback_access : 43050
L2C-writeback_hit : 42979
L2C-writeback_miss : 71
L2C-prefetch_requested : 537793
L2C-prefetch_issued : 536437
L2C-prefetch_useful : 8867
L2C-prefetch_useless : 12419
L2C-Avg_miss_latency : 103.966
L2C-Morteza_fill_l2_prefetches : 192489

LLC TOTAL     ACCESS:     135025  HIT:     106026  MISS:      28999
LLC LOAD      ACCESS:       5379  HIT:       3283  MISS:       2096
LLC RFO       ACCESS:      12073  HIT:        475  MISS:      11598
LLC PREFETCH  ACCESS:     103952  HIT:      88720  MISS:      15232
LLC WRITEBACK ACCESS:      13621  HIT:      13548  MISS:         73
LLC PREFETCH  REQUESTED:          0  ISSUED:          0  USEFUL:       1725  USELESS:      13963
LLC AVERAGE MISS LATENCY: 165.514 cycles
LLC

SHEET
LLC-total_access : 135025
LLC-total_hit : 106026
LLC-total_miss : 28999
LLC-load_access : 5379
LLC-load_hit : 3283
LLC-load_miss : 2096
LLC-rfo_access : 12073
LLC-rfo_hit : 475
LLC-rfo_miss : 11598
LLC-prefetch_access : 103952
LLC-prefetch_hit : 88720
LLC-prefetch_miss : 15232
LLC-writeback_access : 13621
LLC-writeback_hit : 13548
LLC-writeback_miss : 73
LLC-prefetch_requested : 0
LLC-prefetch_issued : 0
LLC-prefetch_useful : 1725
LLC-prefetch_useless : 13963
LLC-Avg_miss_latency : 165.514
LLC-Morteza_fill_l2_prefetches : 72914

Major fault: 0 Minor fault: 1284
I-Shadow cache 408 bytes
Touched + WorthPF tables 24576 bytes 
MMA filter 174 bytes 
FNL filter 272 bytes 
TOTAL PREFETCHER STORAGE SIZE: 98134 bytes
CPU 0 L1I next line prefetcher final stats

 morteza stats start 

SHEET
fnlfilter_access_cntr : 3774005
iShadow_access_cntr : 34079220
missahead_access_cntr : 819654
mmafilter_access_cntr : 1282190
touched_access_cntr : 7147040
worthpf_access_cntr : 3611829


morteza stats endCPU 0 L1D next line prefetcher final stats

DRAM Statistics
 CHANNEL 0
 RQ ROW_BUFFER_HIT:       9097  ROW_BUFFER_MISS:      19829
 DBUS_CONGESTED:      12356
 WQ ROW_BUFFER_HIT:       2891  ROW_BUFFER_MISS:       9819  FULL:          0

 AVG_CONGESTED_CYCLE: 6

CPU 0 Branch Prediction Accuracy: 97.1633% MPKI: 1.73704 Average ROB Occupancy at Mispredict: 42.2946

Branch types
NOT_BRANCH: 46937921 93.8758%
BRANCH_DIRECT_JUMP: 170816 0.341632%
BRANCH_INDIRECT: 0 0%
BRANCH_CONDITIONAL: 2532774 5.06555%
BRANCH_DIRECT_CALL: 114227 0.228454%
BRANCH_INDIRECT_CALL: 64863 0.129726%
BRANCH_RETURN: 179089 0.358178%
BRANCH_OTHER: 0 0%

