Initialize SIGNATURE TABLE
ST_SET: 1
ST_WAY: 256
ST_TAG_BIT: 16
ST_TAG_MASK: ffff

Initialize PATTERN TABLE
PT_SET: 512
PT_WAY: 4
SIG_DELTA_BIT: 7
C_SIG_BIT: 4
C_DELTA_BIT: 4

Initialize PREFETCH FILTER
FILTER_SET: 1024

*** ChampSim Multicore Out-of-Order Simulator ***

Warmup Instructions: 50000000
Simulation Instructions: 50000000
Number of CPUs: 1
LLC sets: 2048
LLC ways: 16
Off-chip DRAM Size: 4096 MB Channels: 1 Width: 64-bit Data Rate: 3200 MT/s

CPU 0 runs /home/mbaradaran/ChampSim/dpc3_traces/spec_gcc_002.champsimtrace.xz
CPU 0 L1I next line prefetcher
CPU 0 L1D next line prefetcher
Heartbeat CPU 0 instructions: 10000002 cycles: 3539685 heartbeat IPC: 2.82511 cumulative IPC: 2.82511 (Simulation time: 0 hr 1 min 11 sec) 
Heartbeat CPU 0 instructions: 20000000 cycles: 7109294 heartbeat IPC: 2.80143 cumulative IPC: 2.81322 (Simulation time: 0 hr 2 min 20 sec) 
Heartbeat CPU 0 instructions: 30000000 cycles: 10735958 heartbeat IPC: 2.75735 cumulative IPC: 2.79435 (Simulation time: 0 hr 3 min 34 sec) 
Heartbeat CPU 0 instructions: 40000000 cycles: 14285823 heartbeat IPC: 2.81701 cumulative IPC: 2.79998 (Simulation time: 0 hr 4 min 39 sec) 
Heartbeat CPU 0 instructions: 50000002 cycles: 17758159 heartbeat IPC: 2.87991 cumulative IPC: 2.81561 (Simulation time: 0 hr 5 min 41 sec) 

Warmup complete CPU 0 instructions: 50000002 cycles: 17758159 (Simulation time: 0 hr 5 min 41 sec) 

Heartbeat CPU 0 instructions: 60000001 cycles: 58072691 heartbeat IPC: 0.248049 cumulative IPC: 0.248049 (Simulation time: 0 hr 8 min 19 sec) 
Heartbeat CPU 0 instructions: 70000001 cycles: 90136995 heartbeat IPC: 0.311873 cumulative IPC: 0.276324 (Simulation time: 0 hr 10 min 35 sec) 
Heartbeat CPU 0 instructions: 80000002 cycles: 139199758 heartbeat IPC: 0.203821 cumulative IPC: 0.247032 (Simulation time: 0 hr 13 min 34 sec) 
Heartbeat CPU 0 instructions: 90000001 cycles: 183800869 heartbeat IPC: 0.22421 cumulative IPC: 0.240902 (Simulation time: 0 hr 16 min 19 sec) 
Heartbeat CPU 0 instructions: 100000000 cycles: 216061162 heartbeat IPC: 0.309979 cumulative IPC: 0.252139 (Simulation time: 0 hr 18 min 29 sec) 
Finished CPU 0 instructions: 50000002 cycles: 198303011 cumulative IPC: 0.252139 (Simulation time: 0 hr 18 min 29 sec) 

ChampSim completed all CPUs

Region of Interest Statistics

CPU 0 cumulative IPC: 0.252139 instructions: 50000002 cycles: 198303011

SHEET
IPC : 0.252139

L1D TOTAL     ACCESS:   18282646  HIT:   13049122  MISS:    5233524
L1D LOAD      ACCESS:    6381649  HIT:    5323514  MISS:    1058135
L1D RFO       ACCESS:    7032100  HIT:    3431483  MISS:    3600617
L1D PREFETCH  ACCESS:    4868897  HIT:    4294125  MISS:     574772
L1D WRITEBACK ACCESS:          0  HIT:          0  MISS:          0
L1D PREFETCH  REQUESTED:    6401763  ISSUED:    6332672  USEFUL:     415080  USELESS:     159908
L1D AVERAGE MISS LATENCY: 335.167 cycles
L1D

SHEET
L1D-total_access : 18282646
L1D-total_hit : 13049122
L1D-total_miss : 5233524
L1D-load_access : 6381649
L1D-load_hit : 5323514
L1D-load_miss : 1058135
L1D-rfo_access : 7032100
L1D-rfo_hit : 3431483
L1D-rfo_miss : 3600617
L1D-prefetch_access : 4868897
L1D-prefetch_hit : 4294125
L1D-prefetch_miss : 574772
L1D-writeback_access : 0
L1D-writeback_hit : 0
L1D-writeback_miss : 0
L1D-prefetch_requested : 6401763
L1D-prefetch_issued : 6332672
L1D-prefetch_useful : 415080
L1D-prefetch_useless : 159908
L1D-Avg_miss_latency : 335.167
L1D-Morteza_fill_l2_prefetches : 0

L1I TOTAL     ACCESS:   14004721  HIT:   12832790  MISS:    1171931
L1I LOAD      ACCESS:   12109207  HIT:   11961121  MISS:     148086
L1I RFO       ACCESS:          0  HIT:          0  MISS:          0
L1I PREFETCH  ACCESS:    1895514  HIT:     871669  MISS:    1023845
L1I WRITEBACK ACCESS:          0  HIT:          0  MISS:          0
L1I PREFETCH  REQUESTED:    2022402  ISSUED:    2019598  USEFUL:     623350  USELESS:     400458
L1I AVERAGE MISS LATENCY: 58.9559 cycles
L1I

SHEET
L1I-total_access : 14004721
L1I-total_hit : 12832790
L1I-total_miss : 1171931
L1I-load_access : 12109207
L1I-load_hit : 11961121
L1I-load_miss : 148086
L1I-rfo_access : 0
L1I-rfo_hit : 0
L1I-rfo_miss : 0
L1I-prefetch_access : 1895514
L1I-prefetch_hit : 871669
L1I-prefetch_miss : 1023845
L1I-writeback_access : 0
L1I-writeback_hit : 0
L1I-writeback_miss : 0
L1I-prefetch_requested : 2022402
L1I-prefetch_issued : 2019598
L1I-prefetch_useful : 623350
L1I-prefetch_useless : 400458
L1I-Avg_miss_latency : 58.9559
L1I-Morteza_fill_l2_prefetches : 0

L2C TOTAL     ACCESS:   10553789  HIT:    5237188  MISS:    5316601
L2C LOAD      ACCESS:     362268  HIT:     192444  MISS:     169824
L2C RFO       ACCESS:    3599034  HIT:      12395  MISS:    3586639
L2C PREFETCH  ACCESS:    2866987  HIT:    1307018  MISS:    1559969
L2C WRITEBACK ACCESS:    3725500  HIT:    3725331  MISS:        169
L2C PREFETCH  REQUESTED:    3430865  ISSUED:    3430656  USEFUL:      50836  USELESS:    1509318
L2C AVERAGE MISS LATENCY: 347.014 cycles
L2C

SHEET
L2C-total_access : 10553789
L2C-total_hit : 5237188
L2C-total_miss : 5316601
L2C-load_access : 362268
L2C-load_hit : 192444
L2C-load_miss : 169824
L2C-rfo_access : 3599034
L2C-rfo_hit : 12395
L2C-rfo_miss : 3586639
L2C-prefetch_access : 2866987
L2C-prefetch_hit : 1307018
L2C-prefetch_miss : 1559969
L2C-writeback_access : 3725500
L2C-writeback_hit : 3725331
L2C-writeback_miss : 169
L2C-prefetch_requested : 3430865
L2C-prefetch_issued : 3430656
L2C-prefetch_useful : 50836
L2C-prefetch_useless : 1509318
L2C-Avg_miss_latency : 347.014
L2C-Morteza_fill_l2_prefetches : 336087

LLC TOTAL     ACCESS:   10037214  HIT:    6151580  MISS:    3885634
LLC LOAD      ACCESS:     169629  HIT:      99568  MISS:      70061
LLC RFO       ACCESS:    3586638  HIT:     586990  MISS:    2999648
LLC PREFETCH  ACCESS:    2614534  HIT:    1798609  MISS:     815925
LLC WRITEBACK ACCESS:    3666413  HIT:    3666413  MISS:          0
LLC PREFETCH  REQUESTED:          0  ISSUED:          0  USEFUL:     141291  USELESS:     669947
LLC AVERAGE MISS LATENCY: 456.783 cycles
LLC

SHEET
LLC-total_access : 10037214
LLC-total_hit : 6151580
LLC-total_miss : 3885634
LLC-load_access : 169629
LLC-load_hit : 99568
LLC-load_miss : 70061
LLC-rfo_access : 3586639
LLC-rfo_hit : 586990
LLC-rfo_miss : 2999649
LLC-prefetch_access : 2614534
LLC-prefetch_hit : 1798609
LLC-prefetch_miss : 815925
LLC-writeback_access : 3666413
LLC-writeback_hit : 3666413
LLC-writeback_miss : 0
LLC-prefetch_requested : 0
LLC-prefetch_issued : 0
LLC-prefetch_useful : 141291
LLC-prefetch_useless : 669947
LLC-Avg_miss_latency : 456.783
LLC-Morteza_fill_l2_prefetches : 1015631

Major fault: 0 Minor fault: 4152
I-Shadow cache 408 bytes
Touched + WorthPF tables 24576 bytes 
MMA filter 174 bytes 
FNL filter 272 bytes 
TOTAL PREFETCHER STORAGE SIZE: 98134 bytes
CPU 0 L1I next line prefetcher final stats

 morteza stats start 

SHEET
fnlfilter_access_cntr : 9650218
iShadow_access_cntr : 47010268
missahead_access_cntr : 3257434
mmafilter_access_cntr : 4185873
touched_access_cntr : 19514520
worthpf_access_cntr : 9000104


morteza stats endCPU 0 L1D next line prefetcher final stats

DRAM Statistics
 CHANNEL 0
 RQ ROW_BUFFER_HIT:    1019092  ROW_BUFFER_MISS:    2863772
 DBUS_CONGESTED:    5566652
 WQ ROW_BUFFER_HIT:     943010  ROW_BUFFER_MISS:    2231230  FULL:          0

 AVG_CONGESTED_CYCLE: 6

CPU 0 Branch Prediction Accuracy: 99.5987% MPKI: 0.82446 Average ROB Occupancy at Mispredict: 124.548

Branch types
NOT_BRANCH: 39726803 79.4536%
BRANCH_DIRECT_JUMP: 391438 0.782876%
BRANCH_INDIRECT: 62076 0.124152%
BRANCH_CONDITIONAL: 8421539 16.8431%
BRANCH_DIRECT_CALL: 672962 1.34592%
BRANCH_INDIRECT_CALL: 26115 0.05223%
BRANCH_RETURN: 699082 1.39816%
BRANCH_OTHER: 0 0%

