Initialize SIGNATURE TABLE
ST_SET: 1
ST_WAY: 256
ST_TAG_BIT: 16
ST_TAG_MASK: ffff

Initialize PATTERN TABLE
PT_SET: 512
PT_WAY: 4
SIG_DELTA_BIT: 7
C_SIG_BIT: 4
C_DELTA_BIT: 4

Initialize PREFETCH FILTER
FILTER_SET: 1024

*** ChampSim Multicore Out-of-Order Simulator ***

Warmup Instructions: 50000000
Simulation Instructions: 50000000
Number of CPUs: 1
LLC sets: 2048
LLC ways: 16
Off-chip DRAM Size: 4096 MB Channels: 1 Width: 64-bit Data Rate: 3200 MT/s

CPU 0 runs /home/mbaradaran/ChampSim/dpc3_traces/server_009.champsimtrace.xz
CPU 0 L1D next line prefetcher
Heartbeat CPU 0 instructions: 10000003 cycles: 3194797 heartbeat IPC: 3.13009 cumulative IPC: 3.13009 (Simulation time: 0 hr 1 min 40 sec) 
Heartbeat CPU 0 instructions: 20000001 cycles: 6382389 heartbeat IPC: 3.13716 cumulative IPC: 3.13362 (Simulation time: 0 hr 3 min 24 sec) 
Heartbeat CPU 0 instructions: 30000002 cycles: 9585341 heartbeat IPC: 3.12212 cumulative IPC: 3.12978 (Simulation time: 0 hr 5 min 10 sec) 
Heartbeat CPU 0 instructions: 40000003 cycles: 12784281 heartbeat IPC: 3.12604 cumulative IPC: 3.12884 (Simulation time: 0 hr 6 min 45 sec) 
Heartbeat CPU 0 instructions: 50000000 cycles: 16040382 heartbeat IPC: 3.07116 cumulative IPC: 3.11713 (Simulation time: 0 hr 8 min 25 sec) 

Warmup complete CPU 0 instructions: 50000004 cycles: 16040383 (Simulation time: 0 hr 8 min 25 sec) 

Heartbeat CPU 0 instructions: 60000002 cycles: 31918721 heartbeat IPC: 0.629789 cumulative IPC: 0.629789 (Simulation time: 0 hr 10 min 41 sec) 
Heartbeat CPU 0 instructions: 70000003 cycles: 53255618 heartbeat IPC: 0.468672 cumulative IPC: 0.537414 (Simulation time: 0 hr 13 min 31 sec) 
Heartbeat CPU 0 instructions: 80000000 cycles: 60471221 heartbeat IPC: 1.38589 cumulative IPC: 0.675207 (Simulation time: 0 hr 15 min 4 sec) 
Heartbeat CPU 0 instructions: 90000001 cycles: 67945402 heartbeat IPC: 1.33794 cumulative IPC: 0.770638 (Simulation time: 0 hr 16 min 39 sec) 
Heartbeat CPU 0 instructions: 100000003 cycles: 75127007 heartbeat IPC: 1.39245 cumulative IPC: 0.846215 (Simulation time: 0 hr 18 min 17 sec) 
Finished CPU 0 instructions: 50000003 cycles: 59086625 cumulative IPC: 0.846215 (Simulation time: 0 hr 18 min 17 sec) 

ChampSim completed all CPUs

Region of Interest Statistics

CPU 0 cumulative IPC: 0.846215 instructions: 50000003 cycles: 59086625

SHEET
IPC : 0.846215

L1D TOTAL     ACCESS:   21640736  HIT:   17061157  MISS:    4579579
L1D LOAD      ACCESS:    8635593  HIT:    6355959  MISS:    2279634
L1D RFO       ACCESS:    4581073  HIT:    4476563  MISS:     104510
L1D PREFETCH  ACCESS:    8424070  HIT:    6228635  MISS:    2195435
L1D WRITEBACK ACCESS:          0  HIT:          0  MISS:          0
L1D PREFETCH  REQUESTED:    8667789  ISSUED:    8570639  USEFUL:     106928  USELESS:    2088505
L1D AVERAGE MISS LATENCY: 20.1917 cycles
L1D

SHEET
L1D-total_access : 21640736
L1D-total_hit : 17061157
L1D-total_miss : 4579579
L1D-load_access : 8635593
L1D-load_hit : 6355959
L1D-load_miss : 2279634
L1D-rfo_access : 4581073
L1D-rfo_hit : 4476563
L1D-rfo_miss : 104510
L1D-prefetch_access : 8424070
L1D-prefetch_hit : 6228635
L1D-prefetch_miss : 2195435
L1D-writeback_access : 0
L1D-writeback_hit : 0
L1D-writeback_miss : 0
L1D-prefetch_requested : 8667789
L1D-prefetch_issued : 8570639
L1D-prefetch_useful : 106928
L1D-prefetch_useless : 2088505
L1D-Avg_miss_latency : 20.1917
L1D-Morteza_fill_l2_prefetches : 0

L1I TOTAL     ACCESS:   16345347  HIT:   14981492  MISS:    1363855
L1I LOAD      ACCESS:   10755870  HIT:   10634991  MISS:     120879
L1I RFO       ACCESS:          0  HIT:          0  MISS:          0
L1I PREFETCH  ACCESS:    5589477  HIT:    4346501  MISS:    1242976
L1I WRITEBACK ACCESS:          0  HIT:          0  MISS:          0
L1I PREFETCH  REQUESTED:    5701494  ISSUED:    5674928  USEFUL:     970300  USELESS:     272688
L1I AVERAGE MISS LATENCY: 31.2978 cycles
L1I

SHEET
L1I-total_access : 16345347
L1I-total_hit : 14981492
L1I-total_miss : 1363855
L1I-load_access : 10755870
L1I-load_hit : 10634991
L1I-load_miss : 120879
L1I-rfo_access : 0
L1I-rfo_hit : 0
L1I-rfo_miss : 0
L1I-prefetch_access : 5589477
L1I-prefetch_hit : 4346501
L1I-prefetch_miss : 1242976
L1I-writeback_access : 0
L1I-writeback_hit : 0
L1I-writeback_miss : 0
L1I-prefetch_requested : 5701494
L1I-prefetch_issued : 5674928
L1I-prefetch_useful : 970300
L1I-prefetch_useless : 272688
L1I-Avg_miss_latency : 31.2978
L1I-Morteza_fill_l2_prefetches : 0

L2C TOTAL     ACCESS:    7531082  HIT:    6519198  MISS:    1011884
L2C LOAD      ACCESS:    2331391  HIT:    2090285  MISS:     241106
L2C RFO       ACCESS:     103572  HIT:      64317  MISS:      39255
L2C PREFETCH  ACCESS:    4839267  HIT:    4108621  MISS:     730646
L2C WRITEBACK ACCESS:     256852  HIT:     255975  MISS:        877
L2C PREFETCH  REQUESTED:    7188040  ISSUED:    7184952  USEFUL:      23334  USELESS:     704474
L2C AVERAGE MISS LATENCY: 46.4584 cycles
L2C

SHEET
L2C-total_access : 7531082
L2C-total_hit : 6519198
L2C-total_miss : 1011884
L2C-load_access : 2331391
L2C-load_hit : 2090285
L2C-load_miss : 241106
L2C-rfo_access : 103572
L2C-rfo_hit : 64317
L2C-rfo_miss : 39255
L2C-prefetch_access : 4839267
L2C-prefetch_hit : 4108621
L2C-prefetch_miss : 730646
L2C-writeback_access : 256852
L2C-writeback_hit : 255975
L2C-writeback_miss : 877
L2C-prefetch_requested : 7188040
L2C-prefetch_issued : 7184952
L2C-prefetch_useful : 23334
L2C-prefetch_useless : 704474
L2C-Avg_miss_latency : 46.4584
L2C-Morteza_fill_l2_prefetches : 1328430

LLC TOTAL     ACCESS:    2439042  HIT:    2305267  MISS:     133775
LLC LOAD      ACCESS:     239552  HIT:     214721  MISS:      24831
LLC RFO       ACCESS:      39252  HIT:      30425  MISS:       8827
LLC PREFETCH  ACCESS:    2025266  HIT:    1925484  MISS:      99782
LLC WRITEBACK ACCESS:     134972  HIT:     134637  MISS:        335
LLC PREFETCH  REQUESTED:          0  ISSUED:          0  USEFUL:      15039  USELESS:      83175
LLC AVERAGE MISS LATENCY: 166.876 cycles
LLC

SHEET
LLC-total_access : 2439042
LLC-total_hit : 2305267
LLC-total_miss : 133775
LLC-load_access : 239552
LLC-load_hit : 214721
LLC-load_miss : 24831
LLC-rfo_access : 39252
LLC-rfo_hit : 30425
LLC-rfo_miss : 8827
LLC-prefetch_access : 2025266
LLC-prefetch_hit : 1925484
LLC-prefetch_miss : 99782
LLC-writeback_access : 134972
LLC-writeback_hit : 134637
LLC-writeback_miss : 335
LLC-prefetch_requested : 0
LLC-prefetch_issued : 0
LLC-prefetch_useful : 15039
LLC-prefetch_useless : 83175
LLC-Avg_miss_latency : 166.876
LLC-Morteza_fill_l2_prefetches : 1289015

Major fault: 0 Minor fault: 6351



Printing Logs
morteza: start

SHEET
history_access_cntr : 5465146
index_access_cntr : 2225469
sab_access_cntr : 16219321
compactor_access_cntr : 15594498

morteza: end
CPU 0 L1D next line prefetcher final stats

DRAM Statistics
 CHANNEL 0
 RQ ROW_BUFFER_HIT:      25360  ROW_BUFFER_MISS:     108064
 DBUS_CONGESTED:      58801
 WQ ROW_BUFFER_HIT:       9539  ROW_BUFFER_MISS:      38340  FULL:          0

 AVG_CONGESTED_CYCLE: 5

CPU 0 Branch Prediction Accuracy: 99.4713% MPKI: 1.11484 Average ROB Occupancy at Mispredict: 112.962

Branch types
NOT_BRANCH: 39456615 78.9132%
BRANCH_DIRECT_JUMP: 445350 0.8907%
BRANCH_INDIRECT: 131149 0.262298%
BRANCH_CONDITIONAL: 8130196 16.2604%
BRANCH_DIRECT_CALL: 732485 1.46497%
BRANCH_INDIRECT_CALL: 172369 0.344738%
BRANCH_RETURN: 931558 1.86312%
BRANCH_OTHER: 0 0%

