Initialize SIGNATURE TABLE
ST_SET: 1
ST_WAY: 256
ST_TAG_BIT: 16
ST_TAG_MASK: ffff

Initialize PATTERN TABLE
PT_SET: 512
PT_WAY: 4
SIG_DELTA_BIT: 7
C_SIG_BIT: 4
C_DELTA_BIT: 4

Initialize PREFETCH FILTER
FILTER_SET: 1024

*** ChampSim Multicore Out-of-Order Simulator ***

Warmup Instructions: 50000000
Simulation Instructions: 50000000
Number of CPUs: 1
LLC sets: 2048
LLC ways: 16
Off-chip DRAM Size: 4096 MB Channels: 1 Width: 64-bit Data Rate: 3200 MT/s

CPU 0 runs /home/mbaradaran/ChampSim/dpc3_traces/server_012.champsimtrace.xz
CPU 0 L1D next line prefetcher
Heartbeat CPU 0 instructions: 10000002 cycles: 3191775 heartbeat IPC: 3.13305 cumulative IPC: 3.13305 (Simulation time: 0 hr 1 min 38 sec) 
Heartbeat CPU 0 instructions: 20000002 cycles: 6386232 heartbeat IPC: 3.13042 cumulative IPC: 3.13174 (Simulation time: 0 hr 3 min 13 sec) 
Heartbeat CPU 0 instructions: 30000001 cycles: 9581484 heartbeat IPC: 3.12964 cumulative IPC: 3.13104 (Simulation time: 0 hr 4 min 55 sec) 
Heartbeat CPU 0 instructions: 40000000 cycles: 12782845 heartbeat IPC: 3.12367 cumulative IPC: 3.12919 (Simulation time: 0 hr 6 min 40 sec) 
Heartbeat CPU 0 instructions: 50000003 cycles: 15977681 heartbeat IPC: 3.13005 cumulative IPC: 3.12937 (Simulation time: 0 hr 8 min 23 sec) 

Warmup complete CPU 0 instructions: 50000003 cycles: 15977681 (Simulation time: 0 hr 8 min 23 sec) 

Heartbeat CPU 0 instructions: 60000002 cycles: 23271081 heartbeat IPC: 1.3711 cumulative IPC: 1.3711 (Simulation time: 0 hr 10 min 3 sec) 
Heartbeat CPU 0 instructions: 70000000 cycles: 30545701 heartbeat IPC: 1.37464 cumulative IPC: 1.37287 (Simulation time: 0 hr 11 min 41 sec) 
Heartbeat CPU 0 instructions: 80000003 cycles: 37853680 heartbeat IPC: 1.36837 cumulative IPC: 1.37137 (Simulation time: 0 hr 13 min 19 sec) 
Heartbeat CPU 0 instructions: 90000001 cycles: 45376764 heartbeat IPC: 1.32924 cumulative IPC: 1.36059 (Simulation time: 0 hr 14 min 52 sec) 
Heartbeat CPU 0 instructions: 100000002 cycles: 52697599 heartbeat IPC: 1.36596 cumulative IPC: 1.36166 (Simulation time: 0 hr 16 min 31 sec) 
Finished CPU 0 instructions: 50000001 cycles: 36719919 cumulative IPC: 1.36166 (Simulation time: 0 hr 16 min 31 sec) 

ChampSim completed all CPUs

Region of Interest Statistics

CPU 0 cumulative IPC: 1.36166 instructions: 50000001 cycles: 36719919

SHEET
IPC : 1.36166

L1D TOTAL     ACCESS:   17340965  HIT:   16298171  MISS:    1042794
L1D LOAD      ACCESS:    6310061  HIT:    5823103  MISS:     486958
L1D RFO       ACCESS:    4961407  HIT:    4879644  MISS:      81763
L1D PREFETCH  ACCESS:    6069497  HIT:    5595424  MISS:     474073
L1D WRITEBACK ACCESS:          0  HIT:          0  MISS:          0
L1D PREFETCH  REQUESTED:    6343734  ISSUED:    6244527  USEFUL:     133506  USELESS:     340588
L1D AVERAGE MISS LATENCY: 39.8136 cycles
L1D

SHEET
L1D-total_access : 17340965
L1D-total_hit : 16298171
L1D-total_miss : 1042794
L1D-load_access : 6310061
L1D-load_hit : 5823103
L1D-load_miss : 486958
L1D-rfo_access : 4961407
L1D-rfo_hit : 4879644
L1D-rfo_miss : 81763
L1D-prefetch_access : 6069497
L1D-prefetch_hit : 5595424
L1D-prefetch_miss : 474073
L1D-writeback_access : 0
L1D-writeback_hit : 0
L1D-writeback_miss : 0
L1D-prefetch_requested : 6343734
L1D-prefetch_issued : 6244527
L1D-prefetch_useful : 133506
L1D-prefetch_useless : 340588
L1D-Avg_miss_latency : 39.8136
L1D-Morteza_fill_l2_prefetches : 0

L1I TOTAL     ACCESS:   14501526  HIT:   12822267  MISS:    1679259
L1I LOAD      ACCESS:    8715440  HIT:    8581186  MISS:     134254
L1I RFO       ACCESS:          0  HIT:          0  MISS:          0
L1I PREFETCH  ACCESS:    5786086  HIT:    4241081  MISS:    1545005
L1I WRITEBACK ACCESS:          0  HIT:          0  MISS:          0
L1I PREFETCH  REQUESTED:    5915854  ISSUED:    5888463  USEFUL:    1243067  USELESS:     301996
L1I AVERAGE MISS LATENCY: 31.0919 cycles
L1I

SHEET
L1I-total_access : 14501526
L1I-total_hit : 12822267
L1I-total_miss : 1679259
L1I-load_access : 8715440
L1I-load_hit : 8581186
L1I-load_miss : 134254
L1I-rfo_access : 0
L1I-rfo_hit : 0
L1I-rfo_miss : 0
L1I-prefetch_access : 5786086
L1I-prefetch_hit : 4241081
L1I-prefetch_miss : 1545005
L1I-writeback_access : 0
L1I-writeback_hit : 0
L1I-writeback_miss : 0
L1I-prefetch_requested : 5915854
L1I-prefetch_issued : 5888463
L1I-prefetch_useful : 1243067
L1I-prefetch_useless : 301996
L1I-Avg_miss_latency : 31.0919
L1I-Morteza_fill_l2_prefetches : 0

L2C TOTAL     ACCESS:    3495841  HIT:    2251114  MISS:    1244727
L2C LOAD      ACCESS:     533061  HIT:     255473  MISS:     277588
L2C RFO       ACCESS:      80635  HIT:      31794  MISS:      48841
L2C PREFETCH  ACCESS:    2606668  HIT:    1689584  MISS:     917084
L2C WRITEBACK ACCESS:     275477  HIT:     274263  MISS:       1214
L2C PREFETCH  REQUESTED:    3372659  ISSUED:    3369371  USEFUL:      28086  USELESS:     888806
L2C AVERAGE MISS LATENCY: 45.4162 cycles
L2C

SHEET
L2C-total_access : 3495841
L2C-total_hit : 2251114
L2C-total_miss : 1244727
L2C-load_access : 533061
L2C-load_hit : 255473
L2C-load_miss : 277588
L2C-rfo_access : 80635
L2C-rfo_hit : 31794
L2C-rfo_miss : 48841
L2C-prefetch_access : 2606668
L2C-prefetch_hit : 1689584
L2C-prefetch_miss : 917084
L2C-writeback_access : 275477
L2C-writeback_hit : 274263
L2C-writeback_miss : 1214
L2C-prefetch_requested : 3372659
L2C-prefetch_issued : 3369371
L2C-prefetch_useful : 28086
L2C-prefetch_useless : 888806
L2C-Avg_miss_latency : 45.4162
L2C-Morteza_fill_l2_prefetches : 496322

LLC TOTAL     ACCESS:    2395943  HIT:    2250147  MISS:     145796
LLC LOAD      ACCESS:     276519  HIT:     253497  MISS:      23022
LLC RFO       ACCESS:      48838  HIT:      38657  MISS:      10181
LLC PREFETCH  ACCESS:    1906149  HIT:    1793916  MISS:     112233
LLC WRITEBACK ACCESS:     164437  HIT:     164077  MISS:        360
LLC PREFETCH  REQUESTED:          0  ISSUED:          0  USEFUL:      13589  USELESS:      97766
LLC AVERAGE MISS LATENCY: 168.448 cycles
LLC

SHEET
LLC-total_access : 2395943
LLC-total_hit : 2250147
LLC-total_miss : 145796
LLC-load_access : 276519
LLC-load_hit : 253497
LLC-load_miss : 23022
LLC-rfo_access : 48838
LLC-rfo_hit : 38657
LLC-rfo_miss : 10181
LLC-prefetch_access : 1906149
LLC-prefetch_hit : 1793916
LLC-prefetch_miss : 112233
LLC-writeback_access : 164437
LLC-writeback_hit : 164077
LLC-writeback_miss : 360
LLC-prefetch_requested : 0
LLC-prefetch_issued : 0
LLC-prefetch_useful : 13589
LLC-prefetch_useless : 97766
LLC-Avg_miss_latency : 168.448
LLC-Morteza_fill_l2_prefetches : 992886

Major fault: 0 Minor fault: 5596



Printing Logs
morteza: start

SHEET
history_access_cntr : 5314997
index_access_cntr : 2160382
sab_access_cntr : 14983438
compactor_access_cntr : 14105683

morteza: end
CPU 0 L1D next line prefetcher final stats

DRAM Statistics
 CHANNEL 0
 RQ ROW_BUFFER_HIT:      21957  ROW_BUFFER_MISS:     123461
 DBUS_CONGESTED:      66744
 WQ ROW_BUFFER_HIT:      11352  ROW_BUFFER_MISS:      49401  FULL:          0

 AVG_CONGESTED_CYCLE: 5

CPU 0 Branch Prediction Accuracy: 99.4607% MPKI: 1.00288 Average ROB Occupancy at Mispredict: 119.23

Branch types
NOT_BRANCH: 40700974 81.4019%
BRANCH_DIRECT_JUMP: 469809 0.939618%
BRANCH_INDIRECT: 153732 0.307464%
BRANCH_CONDITIONAL: 6944062 13.8881%
BRANCH_DIRECT_CALL: 679877 1.35975%
BRANCH_INDIRECT_CALL: 168745 0.33749%
BRANCH_RETURN: 882491 1.76498%
BRANCH_OTHER: 0 0%

