Initialize SIGNATURE TABLE
ST_SET: 1
ST_WAY: 256
ST_TAG_BIT: 16
ST_TAG_MASK: ffff

Initialize PATTERN TABLE
PT_SET: 512
PT_WAY: 4
SIG_DELTA_BIT: 7
C_SIG_BIT: 4
C_DELTA_BIT: 4

Initialize PREFETCH FILTER
FILTER_SET: 1024

*** ChampSim Multicore Out-of-Order Simulator ***

Warmup Instructions: 50000000
Simulation Instructions: 50000000
Number of CPUs: 1
LLC sets: 2048
LLC ways: 16
Off-chip DRAM Size: 4096 MB Channels: 1 Width: 64-bit Data Rate: 3200 MT/s

CPU 0 runs /home/mbaradaran/ChampSim/dpc3_traces/server_029.champsimtrace.xz
CPU 0 L1D next line prefetcher
Heartbeat CPU 0 instructions: 10000001 cycles: 3486673 heartbeat IPC: 2.86806 cumulative IPC: 2.86806 (Simulation time: 0 hr 1 min 51 sec) 
Heartbeat CPU 0 instructions: 20000002 cycles: 6972924 heartbeat IPC: 2.86841 cumulative IPC: 2.86824 (Simulation time: 0 hr 3 min 43 sec) 
Heartbeat CPU 0 instructions: 30000003 cycles: 10459845 heartbeat IPC: 2.86786 cumulative IPC: 2.86811 (Simulation time: 0 hr 5 min 33 sec) 
Heartbeat CPU 0 instructions: 40000000 cycles: 13954160 heartbeat IPC: 2.86179 cumulative IPC: 2.86653 (Simulation time: 0 hr 7 min 23 sec) 
Heartbeat CPU 0 instructions: 50000000 cycles: 17447474 heartbeat IPC: 2.86261 cumulative IPC: 2.86574 (Simulation time: 0 hr 9 min 9 sec) 

Warmup complete CPU 0 instructions: 50000004 cycles: 17447475 (Simulation time: 0 hr 9 min 9 sec) 

Heartbeat CPU 0 instructions: 60000000 cycles: 24979099 heartbeat IPC: 1.32773 cumulative IPC: 1.32773 (Simulation time: 0 hr 11 min 0 sec) 
Heartbeat CPU 0 instructions: 70000003 cycles: 32668687 heartbeat IPC: 1.30046 cumulative IPC: 1.31396 (Simulation time: 0 hr 13 min 1 sec) 
Heartbeat CPU 0 instructions: 80000002 cycles: 40195419 heartbeat IPC: 1.3286 cumulative IPC: 1.3188 (Simulation time: 0 hr 15 min 2 sec) 
*** Reached end of trace for Core: 0 Repeating trace: /home/mbaradaran/ChampSim/dpc3_traces/server_029.champsimtrace.xz
Heartbeat CPU 0 instructions: 90000000 cycles: 47620397 heartbeat IPC: 1.34681 cumulative IPC: 1.32569 (Simulation time: 0 hr 16 min 56 sec) 
Heartbeat CPU 0 instructions: 100000003 cycles: 55061426 heartbeat IPC: 1.3439 cumulative IPC: 1.32929 (Simulation time: 0 hr 18 min 55 sec) 
Finished CPU 0 instructions: 50000003 cycles: 37613952 cumulative IPC: 1.32929 (Simulation time: 0 hr 18 min 55 sec) 

ChampSim completed all CPUs

Region of Interest Statistics

CPU 0 cumulative IPC: 1.32929 instructions: 50000003 cycles: 37613952

SHEET
IPC : 1.32929

L1D TOTAL     ACCESS:   19091573  HIT:   16995165  MISS:    2096408
L1D LOAD      ACCESS:    6746358  HIT:    5681383  MISS:    1064975
L1D RFO       ACCESS:    6114034  HIT:    5828668  MISS:     285366
L1D PREFETCH  ACCESS:    6231181  HIT:    5485114  MISS:     746067
L1D WRITEBACK ACCESS:          0  HIT:          0  MISS:          0
L1D PREFETCH  REQUESTED:    6806647  ISSUED:    6700203  USEFUL:     175995  USELESS:     570062
L1D AVERAGE MISS LATENCY: 20.9283 cycles
L1D

SHEET
L1D-total_access : 19091573
L1D-total_hit : 16995165
L1D-total_miss : 2096408
L1D-load_access : 6746358
L1D-load_hit : 5681383
L1D-load_miss : 1064975
L1D-rfo_access : 6114034
L1D-rfo_hit : 5828668
L1D-rfo_miss : 285366
L1D-prefetch_access : 6231181
L1D-prefetch_hit : 5485114
L1D-prefetch_miss : 746067
L1D-writeback_access : 0
L1D-writeback_hit : 0
L1D-writeback_miss : 0
L1D-prefetch_requested : 6806647
L1D-prefetch_issued : 6700203
L1D-prefetch_useful : 175995
L1D-prefetch_useless : 570062
L1D-Avg_miss_latency : 20.9283
L1D-Morteza_fill_l2_prefetches : 0

L1I TOTAL     ACCESS:   16073229  HIT:   12818261  MISS:    3254968
L1I LOAD      ACCESS:    9749558  HIT:    9611866  MISS:     137692
L1I RFO       ACCESS:          0  HIT:          0  MISS:          0
L1I PREFETCH  ACCESS:    6323671  HIT:    3206395  MISS:    3117276
L1I WRITEBACK ACCESS:          0  HIT:          0  MISS:          0
L1I PREFETCH  REQUESTED:    6461232  ISSUED:    6455719  USEFUL:    2810001  USELESS:     307302
L1I AVERAGE MISS LATENCY: 16.9862 cycles
L1I

SHEET
L1I-total_access : 16073229
L1I-total_hit : 12818261
L1I-total_miss : 3254968
L1I-load_access : 9749558
L1I-load_hit : 9611866
L1I-load_miss : 137692
L1I-rfo_access : 0
L1I-rfo_hit : 0
L1I-rfo_miss : 0
L1I-prefetch_access : 6323671
L1I-prefetch_hit : 3206395
L1I-prefetch_miss : 3117276
L1I-writeback_access : 0
L1I-writeback_hit : 0
L1I-writeback_miss : 0
L1I-prefetch_requested : 6461232
L1I-prefetch_issued : 6455719
L1I-prefetch_useful : 2810001
L1I-prefetch_useless : 307302
L1I-Avg_miss_latency : 16.9862
L1I-Morteza_fill_l2_prefetches : 0

L2C TOTAL     ACCESS:    7369217  HIT:    6745333  MISS:     623884
L2C LOAD      ACCESS:     948200  HIT:     807115  MISS:     141085
L2C RFO       ACCESS:     283534  HIT:     237360  MISS:      46174
L2C PREFETCH  ACCESS:    5526958  HIT:    5091352  MISS:     435606
L2C WRITEBACK ACCESS:     610525  HIT:     609506  MISS:       1019
L2C PREFETCH  REQUESTED:    6480313  ISSUED:    6470408  USEFUL:      12292  USELESS:     422112
L2C AVERAGE MISS LATENCY: 43.5671 cycles
L2C

SHEET
L2C-total_access : 7369217
L2C-total_hit : 6745333
L2C-total_miss : 623884
L2C-load_access : 948200
L2C-load_hit : 807115
L2C-load_miss : 141085
L2C-rfo_access : 283534
L2C-rfo_hit : 237360
L2C-rfo_miss : 46174
L2C-prefetch_access : 5526958
L2C-prefetch_hit : 5091352
L2C-prefetch_miss : 435606
L2C-writeback_access : 610525
L2C-writeback_hit : 609506
L2C-writeback_miss : 1019
L2C-prefetch_requested : 6480313
L2C-prefetch_issued : 6470408
L2C-prefetch_useful : 12292
L2C-prefetch_useless : 422112
L2C-Avg_miss_latency : 43.5671
L2C-Morteza_fill_l2_prefetches : 1467750

LLC TOTAL     ACCESS:    2362531  HIT:    2283552  MISS:      78979
LLC LOAD      ACCESS:     140975  HIT:     123564  MISS:      17411
LLC RFO       ACCESS:      46173  HIT:      42551  MISS:       3622
LLC PREFETCH  ACCESS:    2081782  HIT:    2024507  MISS:      57275
LLC WRITEBACK ACCESS:      93601  HIT:      92930  MISS:        671
LLC PREFETCH  REQUESTED:          0  ISSUED:          0  USEFUL:       2756  USELESS:      54848
LLC AVERAGE MISS LATENCY: 158.588 cycles
LLC

SHEET
LLC-total_access : 2362531
LLC-total_hit : 2283552
LLC-total_miss : 78979
LLC-load_access : 140975
LLC-load_hit : 123564
LLC-load_miss : 17411
LLC-rfo_access : 46173
LLC-rfo_hit : 42551
LLC-rfo_miss : 3622
LLC-prefetch_access : 2081782
LLC-prefetch_hit : 2024507
LLC-prefetch_miss : 57275
LLC-writeback_access : 93601
LLC-writeback_hit : 92930
LLC-writeback_miss : 671
LLC-prefetch_requested : 0
LLC-prefetch_issued : 0
LLC-prefetch_useful : 2756
LLC-prefetch_useless : 54848
LLC-Avg_miss_latency : 158.588
LLC-Morteza_fill_l2_prefetches : 1628034

Major fault: 0 Minor fault: 5918



Printing Logs
morteza: start

SHEET
history_access_cntr : 7193458
index_access_cntr : 3044945
sab_access_cntr : 17916302
compactor_access_cntr : 17249864

morteza: end
CPU 0 L1D next line prefetcher final stats

DRAM Statistics
 CHANNEL 0
 RQ ROW_BUFFER_HIT:      21618  ROW_BUFFER_MISS:      56673
 DBUS_CONGESTED:      31720
 WQ ROW_BUFFER_HIT:        624  ROW_BUFFER_MISS:       4032  FULL:          0

 AVG_CONGESTED_CYCLE: 5

CPU 0 Branch Prediction Accuracy: 99.7245% MPKI: 0.51862 Average ROB Occupancy at Mispredict: 145.495

Branch types
NOT_BRANCH: 40586602 81.1732%
BRANCH_DIRECT_JUMP: 525208 1.05042%
BRANCH_INDIRECT: 166359 0.332718%
BRANCH_CONDITIONAL: 6373091 12.7462%
BRANCH_DIRECT_CALL: 989263 1.97853%
BRANCH_INDIRECT_CALL: 184984 0.369968%
BRANCH_RETURN: 1174250 2.3485%
BRANCH_OTHER: 0 0%

