Initialize SIGNATURE TABLE
ST_SET: 1
ST_WAY: 256
ST_TAG_BIT: 16
ST_TAG_MASK: ffff

Initialize PATTERN TABLE
PT_SET: 512
PT_WAY: 4
SIG_DELTA_BIT: 7
C_SIG_BIT: 4
C_DELTA_BIT: 4

Initialize PREFETCH FILTER
FILTER_SET: 1024

*** ChampSim Multicore Out-of-Order Simulator ***

Warmup Instructions: 50000000
Simulation Instructions: 50000000
Number of CPUs: 1
LLC sets: 2048
LLC ways: 16
Off-chip DRAM Size: 4096 MB Channels: 1 Width: 64-bit Data Rate: 3200 MT/s

CPU 0 runs /home/mbaradaran/ChampSim/dpc3_traces/server_013.champsimtrace.xz
CPU 0 L1D next line prefetcher
Heartbeat CPU 0 instructions: 10000000 cycles: 3211062 heartbeat IPC: 3.11423 cumulative IPC: 3.11423 (Simulation time: 0 hr 1 min 41 sec) 
Heartbeat CPU 0 instructions: 20000001 cycles: 6409777 heartbeat IPC: 3.12626 cumulative IPC: 3.12023 (Simulation time: 0 hr 3 min 24 sec) 
Heartbeat CPU 0 instructions: 30000002 cycles: 9612810 heartbeat IPC: 3.12204 cumulative IPC: 3.12084 (Simulation time: 0 hr 5 min 4 sec) 
Heartbeat CPU 0 instructions: 40000002 cycles: 12811446 heartbeat IPC: 3.12633 cumulative IPC: 3.12221 (Simulation time: 0 hr 6 min 47 sec) 
Heartbeat CPU 0 instructions: 50000000 cycles: 16009979 heartbeat IPC: 3.12643 cumulative IPC: 3.12305 (Simulation time: 0 hr 8 min 33 sec) 

Warmup complete CPU 0 instructions: 50000004 cycles: 16009980 (Simulation time: 0 hr 8 min 33 sec) 

Heartbeat CPU 0 instructions: 60000002 cycles: 23650518 heartbeat IPC: 1.30881 cumulative IPC: 1.30881 (Simulation time: 0 hr 10 min 11 sec) 
Heartbeat CPU 0 instructions: 70000002 cycles: 31512199 heartbeat IPC: 1.27199 cumulative IPC: 1.29014 (Simulation time: 0 hr 11 min 48 sec) 
Heartbeat CPU 0 instructions: 80000003 cycles: 38741007 heartbeat IPC: 1.38335 cumulative IPC: 1.31978 (Simulation time: 0 hr 13 min 25 sec) 
Heartbeat CPU 0 instructions: 90000003 cycles: 46181436 heartbeat IPC: 1.34401 cumulative IPC: 1.32576 (Simulation time: 0 hr 15 min 0 sec) 
Heartbeat CPU 0 instructions: 100000003 cycles: 53708894 heartbeat IPC: 1.32847 cumulative IPC: 1.3263 (Simulation time: 0 hr 16 min 36 sec) 
Finished CPU 0 instructions: 50000003 cycles: 37698915 cumulative IPC: 1.3263 (Simulation time: 0 hr 16 min 36 sec) 

ChampSim completed all CPUs

Region of Interest Statistics

CPU 0 cumulative IPC: 1.3263 instructions: 50000003 cycles: 37698915

SHEET
IPC : 1.3263

L1D TOTAL     ACCESS:   17331306  HIT:   16264860  MISS:    1066446
L1D LOAD      ACCESS:    6319805  HIT:    5819065  MISS:     500740
L1D RFO       ACCESS:    4929287  HIT:    4849193  MISS:      80094
L1D PREFETCH  ACCESS:    6082214  HIT:    5596602  MISS:     485612
L1D WRITEBACK ACCESS:          0  HIT:          0  MISS:          0
L1D PREFETCH  REQUESTED:    6354216  ISSUED:    6260105  USEFUL:     134010  USELESS:     351608
L1D AVERAGE MISS LATENCY: 41.6645 cycles
L1D

SHEET
L1D-total_access : 17331306
L1D-total_hit : 16264860
L1D-total_miss : 1066446
L1D-load_access : 6319805
L1D-load_hit : 5819065
L1D-load_miss : 500740
L1D-rfo_access : 4929287
L1D-rfo_hit : 4849193
L1D-rfo_miss : 80094
L1D-prefetch_access : 6082214
L1D-prefetch_hit : 5596602
L1D-prefetch_miss : 485612
L1D-writeback_access : 0
L1D-writeback_hit : 0
L1D-writeback_miss : 0
L1D-prefetch_requested : 6354216
L1D-prefetch_issued : 6260105
L1D-prefetch_useful : 134010
L1D-prefetch_useless : 351608
L1D-Avg_miss_latency : 41.6645
L1D-Morteza_fill_l2_prefetches : 0

L1I TOTAL     ACCESS:   14492102  HIT:   12758619  MISS:    1733483
L1I LOAD      ACCESS:    8685738  HIT:    8551253  MISS:     134485
L1I RFO       ACCESS:          0  HIT:          0  MISS:          0
L1I PREFETCH  ACCESS:    5806364  HIT:    4207366  MISS:    1598998
L1I WRITEBACK ACCESS:          0  HIT:          0  MISS:          0
L1I PREFETCH  REQUESTED:    5943599  ISSUED:    5913602  USEFUL:    1288056  USELESS:     311119
L1I AVERAGE MISS LATENCY: 32.7923 cycles
L1I

SHEET
L1I-total_access : 14492102
L1I-total_hit : 12758619
L1I-total_miss : 1733483
L1I-load_access : 8685738
L1I-load_hit : 8551253
L1I-load_miss : 134485
L1I-rfo_access : 0
L1I-rfo_hit : 0
L1I-rfo_miss : 0
L1I-prefetch_access : 5806364
L1I-prefetch_hit : 4207366
L1I-prefetch_miss : 1598998
L1I-writeback_access : 0
L1I-writeback_hit : 0
L1I-writeback_miss : 0
L1I-prefetch_requested : 5943599
L1I-prefetch_issued : 5913602
L1I-prefetch_useful : 1288056
L1I-prefetch_useless : 311119
L1I-Avg_miss_latency : 32.7923
L1I-Morteza_fill_l2_prefetches : 0

L2C TOTAL     ACCESS:    3572653  HIT:    2231753  MISS:    1340900
L2C LOAD      ACCESS:     544839  HIT:     251735  MISS:     293104
L2C RFO       ACCESS:      78851  HIT:      31499  MISS:      47352
L2C PREFETCH  ACCESS:    2673178  HIT:    1674515  MISS:     998663
L2C WRITEBACK ACCESS:     275785  HIT:     274004  MISS:       1781
L2C PREFETCH  REQUESTED:    3472368  ISSUED:    3469466  USEFUL:      28585  USELESS:     969827
L2C AVERAGE MISS LATENCY: 46.7752 cycles
L2C

SHEET
L2C-total_access : 3572653
L2C-total_hit : 2231753
L2C-total_miss : 1340900
L2C-load_access : 544839
L2C-load_hit : 251735
L2C-load_miss : 293104
L2C-rfo_access : 78851
L2C-rfo_hit : 31499
L2C-rfo_miss : 47352
L2C-prefetch_access : 2673178
L2C-prefetch_hit : 1674515
L2C-prefetch_miss : 998663
L2C-writeback_access : 275785
L2C-writeback_hit : 274004
L2C-writeback_miss : 1781
L2C-prefetch_requested : 3472368
L2C-prefetch_issued : 3469466
L2C-prefetch_useful : 28585
L2C-prefetch_useless : 969827
L2C-Avg_miss_latency : 46.7752
L2C-Morteza_fill_l2_prefetches : 497128

LLC TOTAL     ACCESS:    2520069  HIT:    2351475  MISS:     168594
LLC LOAD      ACCESS:     292349  HIT:     264682  MISS:      27667
LLC RFO       ACCESS:      47334  HIT:      37307  MISS:      10027
LLC PREFETCH  ACCESS:    2008523  HIT:    1878001  MISS:     130522
LLC WRITEBACK ACCESS:     171863  HIT:     171485  MISS:        378
LLC PREFETCH  REQUESTED:          0  ISSUED:          0  USEFUL:      15645  USELESS:     113726
LLC AVERAGE MISS LATENCY: 169.807 cycles
LLC

SHEET
LLC-total_access : 2520069
LLC-total_hit : 2351475
LLC-total_miss : 168594
LLC-load_access : 292349
LLC-load_hit : 264682
LLC-load_miss : 27667
LLC-rfo_access : 47334
LLC-rfo_hit : 37307
LLC-rfo_miss : 10027
LLC-prefetch_access : 2008523
LLC-prefetch_hit : 1878001
LLC-prefetch_miss : 130522
LLC-writeback_access : 171863
LLC-writeback_hit : 171485
LLC-writeback_miss : 378
LLC-prefetch_requested : 0
LLC-prefetch_issued : 0
LLC-prefetch_useful : 15645
LLC-prefetch_useless : 113726
LLC-Avg_miss_latency : 169.807
LLC-Morteza_fill_l2_prefetches : 1009805

Major fault: 0 Minor fault: 6200



Printing Logs
morteza: start

SHEET
history_access_cntr : 5310625
index_access_cntr : 2160008
sab_access_cntr : 14868254
compactor_access_cntr : 14006637

morteza: end
CPU 0 L1D next line prefetcher final stats

DRAM Statistics
 CHANNEL 0
 RQ ROW_BUFFER_HIT:      26133  ROW_BUFFER_MISS:     142073
 DBUS_CONGESTED:      77330
 WQ ROW_BUFFER_HIT:      12272  ROW_BUFFER_MISS:      52347  FULL:          0

 AVG_CONGESTED_CYCLE: 5

CPU 0 Branch Prediction Accuracy: 99.4114% MPKI: 1.0933 Average ROB Occupancy at Mispredict: 119.601

Branch types
NOT_BRANCH: 40713298 81.4266%
BRANCH_DIRECT_JUMP: 463701 0.927402%
BRANCH_INDIRECT: 146544 0.293088%
BRANCH_CONDITIONAL: 6981959 13.9639%
BRANCH_DIRECT_CALL: 665006 1.33001%
BRANCH_INDIRECT_CALL: 165152 0.330304%
BRANCH_RETURN: 864314 1.72863%
BRANCH_OTHER: 0 0%

