Initialize SIGNATURE TABLE
ST_SET: 1
ST_WAY: 256
ST_TAG_BIT: 16
ST_TAG_MASK: ffff

Initialize PATTERN TABLE
PT_SET: 512
PT_WAY: 4
SIG_DELTA_BIT: 7
C_SIG_BIT: 4
C_DELTA_BIT: 4

Initialize PREFETCH FILTER
FILTER_SET: 1024

*** ChampSim Multicore Out-of-Order Simulator ***

Warmup Instructions: 50000000
Simulation Instructions: 50000000
Number of CPUs: 1
LLC sets: 2048
LLC ways: 16
Off-chip DRAM Size: 4096 MB Channels: 1 Width: 64-bit Data Rate: 3200 MT/s

CPU 0 runs /home/mbaradaran/ChampSim/dpc3_traces/server_002.champsimtrace.xz
CPU 0 L1D next line prefetcher
Heartbeat CPU 0 instructions: 10000000 cycles: 3581202 heartbeat IPC: 2.79236 cumulative IPC: 2.79236 (Simulation time: 0 hr 1 min 39 sec) 
Heartbeat CPU 0 instructions: 20000002 cycles: 7170245 heartbeat IPC: 2.78626 cumulative IPC: 2.78931 (Simulation time: 0 hr 3 min 21 sec) 
Heartbeat CPU 0 instructions: 30000000 cycles: 10710999 heartbeat IPC: 2.82426 cumulative IPC: 2.80086 (Simulation time: 0 hr 5 min 7 sec) 
Heartbeat CPU 0 instructions: 40000000 cycles: 14261244 heartbeat IPC: 2.81671 cumulative IPC: 2.8048 (Simulation time: 0 hr 6 min 51 sec) 
Heartbeat CPU 0 instructions: 50000001 cycles: 17809015 heartbeat IPC: 2.81867 cumulative IPC: 2.80757 (Simulation time: 0 hr 8 min 45 sec) 

Warmup complete CPU 0 instructions: 50000001 cycles: 17809015 (Simulation time: 0 hr 8 min 45 sec) 

Heartbeat CPU 0 instructions: 60000000 cycles: 24251666 heartbeat IPC: 1.55216 cumulative IPC: 1.55216 (Simulation time: 0 hr 10 min 40 sec) 
Heartbeat CPU 0 instructions: 70000003 cycles: 30685448 heartbeat IPC: 1.5543 cumulative IPC: 1.55323 (Simulation time: 0 hr 12 min 32 sec) 
Heartbeat CPU 0 instructions: 80000003 cycles: 37121753 heartbeat IPC: 1.55369 cumulative IPC: 1.55338 (Simulation time: 0 hr 14 min 26 sec) 
Heartbeat CPU 0 instructions: 90000002 cycles: 43557604 heartbeat IPC: 1.5538 cumulative IPC: 1.55348 (Simulation time: 0 hr 16 min 13 sec) 
Heartbeat CPU 0 instructions: 100000003 cycles: 49991543 heartbeat IPC: 1.55426 cumulative IPC: 1.55364 (Simulation time: 0 hr 17 min 59 sec) 
Finished CPU 0 instructions: 50000002 cycles: 32182528 cumulative IPC: 1.55364 (Simulation time: 0 hr 17 min 59 sec) 

ChampSim completed all CPUs

Region of Interest Statistics

CPU 0 cumulative IPC: 1.55364 instructions: 50000002 cycles: 32182528

SHEET
IPC : 1.55364

L1D TOTAL     ACCESS:   21526123  HIT:   21525313  MISS:        810
L1D LOAD      ACCESS:    6602737  HIT:    6602362  MISS:        375
L1D RFO       ACCESS:    8433053  HIT:    8432940  MISS:        113
L1D PREFETCH  ACCESS:    6490333  HIT:    6490011  MISS:        322
L1D WRITEBACK ACCESS:          0  HIT:          0  MISS:          0
L1D PREFETCH  REQUESTED:    6602793  ISSUED:    6497687  USEFUL:         92  USELESS:        231
L1D AVERAGE MISS LATENCY: 35.0593 cycles
L1D

SHEET
L1D-total_access : 21526123
L1D-total_hit : 21525313
L1D-total_miss : 810
L1D-load_access : 6602737
L1D-load_hit : 6602362
L1D-load_miss : 375
L1D-rfo_access : 8433053
L1D-rfo_hit : 8432940
L1D-rfo_miss : 113
L1D-prefetch_access : 6490333
L1D-prefetch_hit : 6490011
L1D-prefetch_miss : 322
L1D-writeback_access : 0
L1D-writeback_hit : 0
L1D-writeback_miss : 0
L1D-prefetch_requested : 6602793
L1D-prefetch_issued : 6497687
L1D-prefetch_useful : 92
L1D-prefetch_useless : 231
L1D-Avg_miss_latency : 35.0593
L1D-Morteza_fill_l2_prefetches : 0

L1I TOTAL     ACCESS:   17974145  HIT:   17227039  MISS:     747106
L1I LOAD      ACCESS:    9827749  HIT:    9809930  MISS:      17819
L1I RFO       ACCESS:          0  HIT:          0  MISS:          0
L1I PREFETCH  ACCESS:    8146396  HIT:    7417109  MISS:     729287
L1I WRITEBACK ACCESS:          0  HIT:          0  MISS:          0
L1I PREFETCH  REQUESTED:    8180566  ISSUED:    8180566  USEFUL:     710492  USELESS:      18795
L1I AVERAGE MISS LATENCY: 13.7709 cycles
L1I

SHEET
L1I-total_access : 17974145
L1I-total_hit : 17227039
L1I-total_miss : 747106
L1I-load_access : 9827749
L1I-load_hit : 9809930
L1I-load_miss : 17819
L1I-rfo_access : 0
L1I-rfo_hit : 0
L1I-rfo_miss : 0
L1I-prefetch_access : 8146396
L1I-prefetch_hit : 7417109
L1I-prefetch_miss : 729287
L1I-writeback_access : 0
L1I-writeback_hit : 0
L1I-writeback_miss : 0
L1I-prefetch_requested : 8180566
L1I-prefetch_issued : 8180566
L1I-prefetch_useful : 710492
L1I-prefetch_useless : 18795
L1I-Avg_miss_latency : 13.7709
L1I-Morteza_fill_l2_prefetches : 0

L2C TOTAL     ACCESS:     874466  HIT:     874131  MISS:        335
L2C LOAD      ACCESS:       3878  HIT:       3783  MISS:         95
L2C RFO       ACCESS:        113  HIT:        111  MISS:          2
L2C PREFETCH  ACCESS:     870138  HIT:     869902  MISS:        236
L2C WRITEBACK ACCESS:        337  HIT:        335  MISS:          2
L2C PREFETCH  REQUESTED:     247430  ISSUED:     247430  USEFUL:         66  USELESS:        133
L2C AVERAGE MISS LATENCY: 98.9522 cycles
L2C

SHEET
L2C-total_access : 874466
L2C-total_hit : 874131
L2C-total_miss : 335
L2C-load_access : 3878
L2C-load_hit : 3783
L2C-load_miss : 95
L2C-rfo_access : 113
L2C-rfo_hit : 111
L2C-rfo_miss : 2
L2C-prefetch_access : 870138
L2C-prefetch_hit : 869902
L2C-prefetch_miss : 236
L2C-writeback_access : 337
L2C-writeback_hit : 335
L2C-writeback_miss : 2
L2C-prefetch_requested : 247430
L2C-prefetch_issued : 247430
L2C-prefetch_useful : 66
L2C-prefetch_useless : 133
L2C-Avg_miss_latency : 98.9522
L2C-Morteza_fill_l2_prefetches : 126411

LLC TOTAL     ACCESS:      57397  HIT:      56567  MISS:        830
LLC LOAD      ACCESS:         94  HIT:         81  MISS:         13
LLC RFO       ACCESS:          2  HIT:          0  MISS:          2
LLC PREFETCH  ACCESS:      57187  HIT:      56377  MISS:        810
LLC WRITEBACK ACCESS:        114  HIT:        109  MISS:          5
LLC PREFETCH  REQUESTED:          0  ISSUED:          0  USEFUL:         14  USELESS:        238
LLC AVERAGE MISS LATENCY: 326.239 cycles
LLC

SHEET
LLC-total_access : 57397
LLC-total_hit : 56567
LLC-total_miss : 830
LLC-load_access : 94
LLC-load_hit : 81
LLC-load_miss : 13
LLC-rfo_access : 2
LLC-rfo_hit : 0
LLC-rfo_miss : 2
LLC-prefetch_access : 57187
LLC-prefetch_hit : 56377
LLC-prefetch_miss : 810
LLC-writeback_access : 114
LLC-writeback_hit : 109
LLC-writeback_miss : 5
LLC-prefetch_requested : 0
LLC-prefetch_issued : 0
LLC-prefetch_useful : 14
LLC-prefetch_useless : 238
LLC-Avg_miss_latency : 326.239
LLC-Morteza_fill_l2_prefetches : 56326

Major fault: 0 Minor fault: 1867



Printing Logs
morteza: start

SHEET
history_access_cntr : 9260664
index_access_cntr : 3877748
sab_access_cntr : 19949107
compactor_access_cntr : 18263898

morteza: end
CPU 0 L1D next line prefetcher final stats

DRAM Statistics
 CHANNEL 0
 RQ ROW_BUFFER_HIT:        150  ROW_BUFFER_MISS:        675
 DBUS_CONGESTED:        513
 WQ ROW_BUFFER_HIT:         94  ROW_BUFFER_MISS:        434  FULL:          0

 AVG_CONGESTED_CYCLE: 6

CPU 0 Branch Prediction Accuracy: 99.8789% MPKI: 0.20388 Average ROB Occupancy at Mispredict: 292.495

Branch types
NOT_BRANCH: 41580695 83.1614%
BRANCH_DIRECT_JUMP: 461630 0.92326%
BRANCH_INDIRECT: 0 0%
BRANCH_CONDITIONAL: 5376437 10.7529%
BRANCH_DIRECT_CALL: 1175775 2.35155%
BRANCH_INDIRECT_CALL: 114840 0.22968%
BRANCH_RETURN: 1290625 2.58125%
BRANCH_OTHER: 0 0%

