Initialize SIGNATURE TABLE
ST_SET: 1
ST_WAY: 256
ST_TAG_BIT: 16
ST_TAG_MASK: ffff

Initialize PATTERN TABLE
PT_SET: 512
PT_WAY: 4
SIG_DELTA_BIT: 7
C_SIG_BIT: 4
C_DELTA_BIT: 4

Initialize PREFETCH FILTER
FILTER_SET: 1024

*** ChampSim Multicore Out-of-Order Simulator ***

Warmup Instructions: 50000000
Simulation Instructions: 50000000
Number of CPUs: 1
LLC sets: 2048
LLC ways: 16
Off-chip DRAM Size: 4096 MB Channels: 1 Width: 64-bit Data Rate: 3200 MT/s

CPU 0 runs /home/mbaradaran/ChampSim/dpc3_traces/client_007.champsimtrace.xz
CPU 0 L1I next line prefetcher
CPU 0 L1D next line prefetcher
Heartbeat CPU 0 instructions: 10000001 cycles: 3642161 heartbeat IPC: 2.74562 cumulative IPC: 2.74562 (Simulation time: 0 hr 1 min 13 sec) 
Heartbeat CPU 0 instructions: 20000003 cycles: 7033760 heartbeat IPC: 2.94846 cumulative IPC: 2.84343 (Simulation time: 0 hr 2 min 23 sec) 
Heartbeat CPU 0 instructions: 30000000 cycles: 10904721 heartbeat IPC: 2.58334 cumulative IPC: 2.7511 (Simulation time: 0 hr 3 min 49 sec) 
Heartbeat CPU 0 instructions: 40000003 cycles: 15064984 heartbeat IPC: 2.40369 cumulative IPC: 2.65516 (Simulation time: 0 hr 5 min 19 sec) 
Heartbeat CPU 0 instructions: 50000002 cycles: 18469946 heartbeat IPC: 2.93689 cumulative IPC: 2.7071 (Simulation time: 0 hr 6 min 34 sec) 

Warmup complete CPU 0 instructions: 50000002 cycles: 18469946 (Simulation time: 0 hr 6 min 34 sec) 

Heartbeat CPU 0 instructions: 60000003 cycles: 25505228 heartbeat IPC: 1.42141 cumulative IPC: 1.42141 (Simulation time: 0 hr 7 min 51 sec) 
Heartbeat CPU 0 instructions: 70000003 cycles: 34465099 heartbeat IPC: 1.11609 cumulative IPC: 1.25038 (Simulation time: 0 hr 9 min 11 sec) 
Heartbeat CPU 0 instructions: 80000002 cycles: 39873045 heartbeat IPC: 1.84913 cumulative IPC: 1.40167 (Simulation time: 0 hr 10 min 15 sec) 
Heartbeat CPU 0 instructions: 90000002 cycles: 47682656 heartbeat IPC: 1.28047 cumulative IPC: 1.36927 (Simulation time: 0 hr 11 min 35 sec) 
Heartbeat CPU 0 instructions: 100000002 cycles: 56625572 heartbeat IPC: 1.1182 cumulative IPC: 1.31042 (Simulation time: 0 hr 12 min 51 sec) 
Finished CPU 0 instructions: 50000000 cycles: 38155626 cumulative IPC: 1.31042 (Simulation time: 0 hr 12 min 51 sec) 

ChampSim completed all CPUs

Region of Interest Statistics

CPU 0 cumulative IPC: 1.31042 instructions: 50000000 cycles: 38155626

SHEET
IPC : 1.31042

L1D TOTAL     ACCESS:   21319809  HIT:   20150433  MISS:    1169376
L1D LOAD      ACCESS:    8427430  HIT:    7889568  MISS:     537862
L1D RFO       ACCESS:    4872147  HIT:    4781138  MISS:      91009
L1D PREFETCH  ACCESS:    8020232  HIT:    7479727  MISS:     540505
L1D WRITEBACK ACCESS:          0  HIT:          0  MISS:          0
L1D PREFETCH  REQUESTED:    8480432  ISSUED:    8237773  USEFUL:     159692  USELESS:     380828
L1D AVERAGE MISS LATENCY: 34.342 cycles
L1D

SHEET
L1D-total_access : 21319809
L1D-total_hit : 20150433
L1D-total_miss : 1169376
L1D-load_access : 8427430
L1D-load_hit : 7889568
L1D-load_miss : 537862
L1D-rfo_access : 4872147
L1D-rfo_hit : 4781138
L1D-rfo_miss : 91009
L1D-prefetch_access : 8020232
L1D-prefetch_hit : 7479727
L1D-prefetch_miss : 540505
L1D-writeback_access : 0
L1D-writeback_hit : 0
L1D-writeback_miss : 0
L1D-prefetch_requested : 8480432
L1D-prefetch_issued : 8237773
L1D-prefetch_useful : 159692
L1D-prefetch_useless : 380828
L1D-Avg_miss_latency : 34.342
L1D-Morteza_fill_l2_prefetches : 0

L1I TOTAL     ACCESS:   10550774  HIT:    9357828  MISS:    1192946
L1I LOAD      ACCESS:    9111465  HIT:    8963444  MISS:     148021
L1I RFO       ACCESS:          0  HIT:          0  MISS:          0
L1I PREFETCH  ACCESS:    1439309  HIT:     394384  MISS:    1044925
L1I WRITEBACK ACCESS:          0  HIT:          0  MISS:          0
L1I PREFETCH  REQUESTED:    1497932  ISSUED:    1497932  USEFUL:     749164  USELESS:     295726
L1I AVERAGE MISS LATENCY: 16.4221 cycles
L1I

SHEET
L1I-total_access : 10550774
L1I-total_hit : 9357828
L1I-total_miss : 1192946
L1I-load_access : 9111465
L1I-load_hit : 8963444
L1I-load_miss : 148021
L1I-rfo_access : 0
L1I-rfo_hit : 0
L1I-rfo_miss : 0
L1I-prefetch_access : 1439309
L1I-prefetch_hit : 394384
L1I-prefetch_miss : 1044925
L1I-writeback_access : 0
L1I-writeback_hit : 0
L1I-writeback_miss : 0
L1I-prefetch_requested : 1497932
L1I-prefetch_issued : 1497932
L1I-prefetch_useful : 749164
L1I-prefetch_useless : 295726
L1I-Avg_miss_latency : 16.4221
L1I-Morteza_fill_l2_prefetches : 0

L2C TOTAL     ACCESS:    3488834  HIT:    3273857  MISS:     214977
L2C LOAD      ACCESS:     641874  HIT:     568857  MISS:      73017
L2C RFO       ACCESS:      89496  HIT:      47846  MISS:      41650
L2C PREFETCH  ACCESS:    2429751  HIT:    2329658  MISS:     100093
L2C WRITEBACK ACCESS:     327713  HIT:     327496  MISS:        217
L2C PREFETCH  REQUESTED:    2810009  ISSUED:    2807162  USEFUL:       9905  USELESS:      90345
L2C AVERAGE MISS LATENCY: 121.701 cycles
L2C

SHEET
L2C-total_access : 3488834
L2C-total_hit : 3273857
L2C-total_miss : 214977
L2C-load_access : 641874
L2C-load_hit : 568857
L2C-load_miss : 73017
L2C-rfo_access : 89496
L2C-rfo_hit : 47846
L2C-rfo_miss : 41650
L2C-prefetch_access : 2429751
L2C-prefetch_hit : 2329658
L2C-prefetch_miss : 100093
L2C-writeback_access : 327713
L2C-writeback_hit : 327496
L2C-writeback_miss : 217
L2C-prefetch_requested : 2810009
L2C-prefetch_issued : 2807162
L2C-prefetch_useful : 9905
L2C-prefetch_useless : 90345
L2C-Avg_miss_latency : 121.701
L2C-Morteza_fill_l2_prefetches : 834756

LLC TOTAL     ACCESS:     911369  HIT:     739568  MISS:     171801
LLC LOAD      ACCESS:      72938  HIT:      37445  MISS:      35493
LLC RFO       ACCESS:      41650  HIT:       7309  MISS:      34341
LLC PREFETCH  ACCESS:     722085  HIT:     620417  MISS:     101668
LLC WRITEBACK ACCESS:      74696  HIT:      74397  MISS:        299
LLC PREFETCH  REQUESTED:          0  ISSUED:          0  USEFUL:      18778  USELESS:      83933
LLC AVERAGE MISS LATENCY: 180.836 cycles
LLC

SHEET
LLC-total_access : 911369
LLC-total_hit : 739568
LLC-total_miss : 171801
LLC-load_access : 72938
LLC-load_hit : 37445
LLC-load_miss : 35493
LLC-rfo_access : 41650
LLC-rfo_hit : 7309
LLC-rfo_miss : 34341
LLC-prefetch_access : 722085
LLC-prefetch_hit : 620417
LLC-prefetch_miss : 101668
LLC-writeback_access : 74696
LLC-writeback_hit : 74397
LLC-writeback_miss : 299
LLC-prefetch_requested : 0
LLC-prefetch_issued : 0
LLC-prefetch_useful : 18778
LLC-prefetch_useless : 83933
LLC-Avg_miss_latency : 180.836
LLC-Morteza_fill_l2_prefetches : 564703

Major fault: 0 Minor fault: 4419
I-Shadow cache 408 bytes
Touched + WorthPF tables 3072 bytes 
MMA filter 174 bytes 
FNL filter 272 bytes 
TOTAL PREFETCHER STORAGE SIZE: 13014 bytes
CPU 0 L1I next line prefetcher final stats

 morteza stats start 

SHEET
fnlfilter_access_cntr : 9373638
iShadow_access_cntr : 40576390
missahead_access_cntr : 1765671
mmafilter_access_cntr : 3586602
touched_access_cntr : 6796986
worthpf_access_cntr : 9366861


morteza stats endCPU 0 L1D next line prefetcher final stats

DRAM Statistics
 CHANNEL 0
 RQ ROW_BUFFER_HIT:      36586  ROW_BUFFER_MISS:     134898
 DBUS_CONGESTED:      97422
 WQ ROW_BUFFER_HIT:      12521  ROW_BUFFER_MISS:      45081  FULL:          0

 AVG_CONGESTED_CYCLE: 5

CPU 0 Branch Prediction Accuracy: 98.8607% MPKI: 1.8623 Average ROB Occupancy at Mispredict: 109.816

Branch types
NOT_BRANCH: 41826773 83.6535%
BRANCH_DIRECT_JUMP: 735330 1.47066%
BRANCH_INDIRECT: 269194 0.538388%
BRANCH_CONDITIONAL: 5957947 11.9159%
BRANCH_DIRECT_CALL: 368758 0.737516%
BRANCH_INDIRECT_CALL: 226975 0.45395%
BRANCH_RETURN: 614696 1.22939%
BRANCH_OTHER: 0 0%

