Initialize SIGNATURE TABLE
ST_SET: 1
ST_WAY: 256
ST_TAG_BIT: 16
ST_TAG_MASK: ffff

Initialize PATTERN TABLE
PT_SET: 512
PT_WAY: 4
SIG_DELTA_BIT: 7
C_SIG_BIT: 4
C_DELTA_BIT: 4

Initialize PREFETCH FILTER
FILTER_SET: 1024

*** ChampSim Multicore Out-of-Order Simulator ***

Warmup Instructions: 50000000
Simulation Instructions: 50000000
Number of CPUs: 1
LLC sets: 2048
LLC ways: 16
Off-chip DRAM Size: 4096 MB Channels: 1 Width: 64-bit Data Rate: 3200 MT/s

CPU 0 runs /home/mbaradaran/ChampSim/dpc3_traces/server_009.champsimtrace.xz
CPU 0 L1I next line prefetcher
CPU 0 L1D next line prefetcher
Heartbeat CPU 0 instructions: 10000003 cycles: 3202865 heartbeat IPC: 3.12221 cumulative IPC: 3.12221 (Simulation time: 0 hr 1 min 22 sec) 
Heartbeat CPU 0 instructions: 20000001 cycles: 6398795 heartbeat IPC: 3.12898 cumulative IPC: 3.12559 (Simulation time: 0 hr 2 min 35 sec) 
Heartbeat CPU 0 instructions: 30000002 cycles: 9608879 heartbeat IPC: 3.11518 cumulative IPC: 3.12211 (Simulation time: 0 hr 3 min 50 sec) 
Heartbeat CPU 0 instructions: 40000003 cycles: 12816441 heartbeat IPC: 3.11763 cumulative IPC: 3.12099 (Simulation time: 0 hr 5 min 3 sec) 
Heartbeat CPU 0 instructions: 50000000 cycles: 16079739 heartbeat IPC: 3.06438 cumulative IPC: 3.1095 (Simulation time: 0 hr 6 min 19 sec) 

Warmup complete CPU 0 instructions: 50000004 cycles: 16079740 (Simulation time: 0 hr 6 min 19 sec) 

Heartbeat CPU 0 instructions: 60000002 cycles: 32418115 heartbeat IPC: 0.612056 cumulative IPC: 0.612056 (Simulation time: 0 hr 7 min 55 sec) 
Heartbeat CPU 0 instructions: 70000003 cycles: 53709835 heartbeat IPC: 0.469666 cumulative IPC: 0.531489 (Simulation time: 0 hr 9 min 50 sec) 
Heartbeat CPU 0 instructions: 80000000 cycles: 61829665 heartbeat IPC: 1.23155 cumulative IPC: 0.655739 (Simulation time: 0 hr 10 min 51 sec) 
Heartbeat CPU 0 instructions: 90000001 cycles: 70068124 heartbeat IPC: 1.21382 cumulative IPC: 0.7409 (Simulation time: 0 hr 11 min 56 sec) 
Heartbeat CPU 0 instructions: 100000003 cycles: 78241164 heartbeat IPC: 1.22354 cumulative IPC: 0.804357 (Simulation time: 0 hr 12 min 59 sec) 
Finished CPU 0 instructions: 50000003 cycles: 62161425 cumulative IPC: 0.804357 (Simulation time: 0 hr 12 min 59 sec) 

ChampSim completed all CPUs

Region of Interest Statistics

CPU 0 cumulative IPC: 0.804357 instructions: 50000003 cycles: 62161425

SHEET
IPC : 0.804357

L1D TOTAL     ACCESS:   21860422  HIT:   17280468  MISS:    4579954
L1D LOAD      ACCESS:    8742243  HIT:    6463544  MISS:    2278699
L1D RFO       ACCESS:    4588376  HIT:    4483919  MISS:     104457
L1D PREFETCH  ACCESS:    8529803  HIT:    6333005  MISS:    2196798
L1D WRITEBACK ACCESS:          0  HIT:          0  MISS:          0
L1D PREFETCH  REQUESTED:    8776216  ISSUED:    8677683  USEFUL:     108163  USELESS:    2088634
L1D AVERAGE MISS LATENCY: 21.0401 cycles
L1D

SHEET
L1D-total_access : 21860422
L1D-total_hit : 17280468
L1D-total_miss : 4579954
L1D-load_access : 8742243
L1D-load_hit : 6463544
L1D-load_miss : 2278699
L1D-rfo_access : 4588376
L1D-rfo_hit : 4483919
L1D-rfo_miss : 104457
L1D-prefetch_access : 8529803
L1D-prefetch_hit : 6333005
L1D-prefetch_miss : 2196798
L1D-writeback_access : 0
L1D-writeback_hit : 0
L1D-writeback_miss : 0
L1D-prefetch_requested : 8776216
L1D-prefetch_issued : 8677683
L1D-prefetch_useful : 108163
L1D-prefetch_useless : 2088634
L1D-Avg_miss_latency : 21.0401
L1D-Morteza_fill_l2_prefetches : 0

L1I TOTAL     ACCESS:   13147692  HIT:   11178748  MISS:    1968944
L1I LOAD      ACCESS:   10709097  HIT:   10222796  MISS:     486301
L1I RFO       ACCESS:          0  HIT:          0  MISS:          0
L1I PREFETCH  ACCESS:    2438595  HIT:     955952  MISS:    1482643
L1I WRITEBACK ACCESS:          0  HIT:          0  MISS:          0
L1I PREFETCH  REQUESTED:    2734390  ISSUED:    2734310  USEFUL:     764338  USELESS:     718262
L1I AVERAGE MISS LATENCY: 31.2794 cycles
L1I

SHEET
L1I-total_access : 13147692
L1I-total_hit : 11178748
L1I-total_miss : 1968944
L1I-load_access : 10709097
L1I-load_hit : 10222796
L1I-load_miss : 486301
L1I-rfo_access : 0
L1I-rfo_hit : 0
L1I-rfo_miss : 0
L1I-prefetch_access : 2438595
L1I-prefetch_hit : 955952
L1I-prefetch_miss : 1482643
L1I-writeback_access : 0
L1I-writeback_hit : 0
L1I-writeback_miss : 0
L1I-prefetch_requested : 2734390
L1I-prefetch_issued : 2734310
L1I-prefetch_useful : 764338
L1I-prefetch_useless : 718262
L1I-Avg_miss_latency : 31.2794
L1I-Morteza_fill_l2_prefetches : 0

L2C TOTAL     ACCESS:    8278587  HIT:    6985959  MISS:    1292628
L2C LOAD      ACCESS:    2620227  HIT:    2280589  MISS:     339638
L2C RFO       ACCESS:     103394  HIT:      62019  MISS:      41375
L2C PREFETCH  ACCESS:    5298084  HIT:    4388126  MISS:     909958
L2C WRITEBACK ACCESS:     256882  HIT:     255225  MISS:       1657
L2C PREFETCH  REQUESTED:    7700778  ISSUED:    7698813  USEFUL:      47861  USELESS:     861403
L2C AVERAGE MISS LATENCY: 51.2182 cycles
L2C

SHEET
L2C-total_access : 8278587
L2C-total_hit : 6985959
L2C-total_miss : 1292628
L2C-load_access : 2620227
L2C-load_hit : 2280589
L2C-load_miss : 339638
L2C-rfo_access : 103394
L2C-rfo_hit : 62019
L2C-rfo_miss : 41375
L2C-prefetch_access : 5298084
L2C-prefetch_hit : 4388126
L2C-prefetch_miss : 909958
L2C-writeback_access : 256882
L2C-writeback_hit : 255225
L2C-writeback_miss : 1657
L2C-prefetch_requested : 7700778
L2C-prefetch_issued : 7698813
L2C-prefetch_useful : 47861
L2C-prefetch_useless : 861403
L2C-Avg_miss_latency : 51.2182
L2C-Morteza_fill_l2_prefetches : 1514969

LLC TOTAL     ACCESS:    2653907  HIT:    2453309  MISS:     200598
LLC LOAD      ACCESS:     339331  HIT:     304921  MISS:      34410
LLC RFO       ACCESS:      41370  HIT:      30977  MISS:      10393
LLC PREFETCH  ACCESS:    2130019  HIT:    1974634  MISS:     155385
LLC WRITEBACK ACCESS:     143187  HIT:     142777  MISS:        410
LLC PREFETCH  REQUESTED:          0  ISSUED:          0  USEFUL:      13583  USELESS:     140151
LLC AVERAGE MISS LATENCY: 172.054 cycles
LLC

SHEET
LLC-total_access : 2653907
LLC-total_hit : 2453309
LLC-total_miss : 200598
LLC-load_access : 339331
LLC-load_hit : 304921
LLC-load_miss : 34410
LLC-rfo_access : 41370
LLC-rfo_hit : 30977
LLC-rfo_miss : 10393
LLC-prefetch_access : 2130019
LLC-prefetch_hit : 1974634
LLC-prefetch_miss : 155385
LLC-writeback_access : 143187
LLC-writeback_hit : 142777
LLC-writeback_miss : 410
LLC-prefetch_requested : 0
LLC-prefetch_issued : 0
LLC-prefetch_useful : 13583
LLC-prefetch_useless : 140151
LLC-Avg_miss_latency : 172.054
LLC-Morteza_fill_l2_prefetches : 1253049

Major fault: 0 Minor fault: 6374
I-Shadow cache 408 bytes
Touched + WorthPF tables 3072 bytes 
MMA filter 174 bytes 
FNL filter 272 bytes 
TOTAL PREFETCHER STORAGE SIZE: 13014 bytes
CPU 0 L1I next line prefetcher final stats

 morteza stats start 

SHEET
fnlfilter_access_cntr : 20171703
iShadow_access_cntr : 42469992
missahead_access_cntr : 2118326
mmafilter_access_cntr : 4567568
touched_access_cntr : 10854093
worthpf_access_cntr : 20823468


morteza stats endCPU 0 L1D next line prefetcher final stats

DRAM Statistics
 CHANNEL 0
 RQ ROW_BUFFER_HIT:      41227  ROW_BUFFER_MISS:     158938
 DBUS_CONGESTED:      89650
 WQ ROW_BUFFER_HIT:      10220  ROW_BUFFER_MISS:      41732  FULL:          0

 AVG_CONGESTED_CYCLE: 5

CPU 0 Branch Prediction Accuracy: 99.4713% MPKI: 1.11484 Average ROB Occupancy at Mispredict: 100.776

Branch types
NOT_BRANCH: 39456615 78.9132%
BRANCH_DIRECT_JUMP: 445350 0.8907%
BRANCH_INDIRECT: 131149 0.262298%
BRANCH_CONDITIONAL: 8130196 16.2604%
BRANCH_DIRECT_CALL: 732485 1.46497%
BRANCH_INDIRECT_CALL: 172369 0.344738%
BRANCH_RETURN: 931558 1.86312%
BRANCH_OTHER: 0 0%

