Initialize SIGNATURE TABLE
ST_SET: 1
ST_WAY: 256
ST_TAG_BIT: 16
ST_TAG_MASK: ffff

Initialize PATTERN TABLE
PT_SET: 512
PT_WAY: 4
SIG_DELTA_BIT: 7
C_SIG_BIT: 4
C_DELTA_BIT: 4

Initialize PREFETCH FILTER
FILTER_SET: 1024

*** ChampSim Multicore Out-of-Order Simulator ***

Warmup Instructions: 50000000
Simulation Instructions: 50000000
Number of CPUs: 1
LLC sets: 2048
LLC ways: 16
Off-chip DRAM Size: 4096 MB Channels: 1 Width: 64-bit Data Rate: 3200 MT/s

CPU 0 runs /home/mbaradaran/ChampSim/dpc3_traces/server_037.champsimtrace.xz
CPU 0 L1I next line prefetcher
CPU 0 L1D next line prefetcher
Heartbeat CPU 0 instructions: 10000001 cycles: 3320347 heartbeat IPC: 3.01173 cumulative IPC: 3.01173 (Simulation time: 0 hr 1 min 20 sec) 
Heartbeat CPU 0 instructions: 20000002 cycles: 6637834 heartbeat IPC: 3.01433 cumulative IPC: 3.01303 (Simulation time: 0 hr 2 min 45 sec) 
Heartbeat CPU 0 instructions: 30000003 cycles: 10003162 heartbeat IPC: 2.97148 cumulative IPC: 2.99905 (Simulation time: 0 hr 4 min 5 sec) 
Heartbeat CPU 0 instructions: 40000000 cycles: 13322534 heartbeat IPC: 3.01262 cumulative IPC: 3.00243 (Simulation time: 0 hr 5 min 23 sec) 
Heartbeat CPU 0 instructions: 50000003 cycles: 16640938 heartbeat IPC: 3.0135 cumulative IPC: 3.00464 (Simulation time: 0 hr 6 min 47 sec) 

Warmup complete CPU 0 instructions: 50000003 cycles: 16640938 (Simulation time: 0 hr 6 min 47 sec) 

Heartbeat CPU 0 instructions: 60000001 cycles: 23042268 heartbeat IPC: 1.56218 cumulative IPC: 1.56218 (Simulation time: 0 hr 8 min 14 sec) 
Heartbeat CPU 0 instructions: 70000000 cycles: 29539800 heartbeat IPC: 1.53905 cumulative IPC: 1.55052 (Simulation time: 0 hr 9 min 42 sec) 
Heartbeat CPU 0 instructions: 80000000 cycles: 35929110 heartbeat IPC: 1.56511 cumulative IPC: 1.55536 (Simulation time: 0 hr 11 min 4 sec) 
Heartbeat CPU 0 instructions: 90000002 cycles: 42331681 heartbeat IPC: 1.56187 cumulative IPC: 1.55698 (Simulation time: 0 hr 12 min 29 sec) 
*** Reached end of trace for Core: 0 Repeating trace: /home/mbaradaran/ChampSim/dpc3_traces/server_037.champsimtrace.xz
Heartbeat CPU 0 instructions: 100000000 cycles: 48752443 heartbeat IPC: 1.55745 cumulative IPC: 1.55707 (Simulation time: 0 hr 13 min 48 sec) 
Finished CPU 0 instructions: 50000001 cycles: 32111506 cumulative IPC: 1.55707 (Simulation time: 0 hr 13 min 48 sec) 

ChampSim completed all CPUs

Region of Interest Statistics

CPU 0 cumulative IPC: 1.55707 instructions: 50000001 cycles: 32111506

SHEET
IPC : 1.55707

L1D TOTAL     ACCESS:   18690234  HIT:   17712312  MISS:     977922
L1D LOAD      ACCESS:    6360973  HIT:    5869771  MISS:     491202
L1D RFO       ACCESS:    6204799  HIT:    6140774  MISS:      64025
L1D PREFETCH  ACCESS:    6124462  HIT:    5701767  MISS:     422695
L1D WRITEBACK ACCESS:          0  HIT:          0  MISS:          0
L1D PREFETCH  REQUESTED:    6398302  ISSUED:    6245401  USEFUL:     117621  USELESS:     305079
L1D AVERAGE MISS LATENCY: 29.1585 cycles
L1D

SHEET
L1D-total_access : 18690234
L1D-total_hit : 17712312
L1D-total_miss : 977922
L1D-load_access : 6360973
L1D-load_hit : 5869771
L1D-load_miss : 491202
L1D-rfo_access : 6204799
L1D-rfo_hit : 6140774
L1D-rfo_miss : 64025
L1D-prefetch_access : 6124462
L1D-prefetch_hit : 5701767
L1D-prefetch_miss : 422695
L1D-writeback_access : 0
L1D-writeback_hit : 0
L1D-writeback_miss : 0
L1D-prefetch_requested : 6398302
L1D-prefetch_issued : 6245401
L1D-prefetch_useful : 117621
L1D-prefetch_useless : 305079
L1D-Avg_miss_latency : 29.1585
L1D-Morteza_fill_l2_prefetches : 0

L1I TOTAL     ACCESS:   16611353  HIT:   11279471  MISS:    5331882
L1I LOAD      ACCESS:    9443085  HIT:    9365768  MISS:      77317
L1I RFO       ACCESS:          0  HIT:          0  MISS:          0
L1I PREFETCH  ACCESS:    7168268  HIT:    1913703  MISS:    5254565
L1I WRITEBACK ACCESS:          0  HIT:          0  MISS:          0
L1I PREFETCH  REQUESTED:    7410332  ISSUED:    7410329  USEFUL:    4090759  USELESS:    1163832
L1I AVERAGE MISS LATENCY: 14.9181 cycles
L1I

SHEET
L1I-total_access : 16611353
L1I-total_hit : 11279471
L1I-total_miss : 5331882
L1I-load_access : 9443085
L1I-load_hit : 9365768
L1I-load_miss : 77317
L1I-rfo_access : 0
L1I-rfo_hit : 0
L1I-rfo_miss : 0
L1I-prefetch_access : 7168268
L1I-prefetch_hit : 1913703
L1I-prefetch_miss : 5254565
L1I-writeback_access : 0
L1I-writeback_hit : 0
L1I-writeback_miss : 0
L1I-prefetch_requested : 7410332
L1I-prefetch_issued : 7410329
L1I-prefetch_useful : 4090759
L1I-prefetch_useless : 1163832
L1I-Avg_miss_latency : 14.9181
L1I-Morteza_fill_l2_prefetches : 0

L2C TOTAL     ACCESS:    8950266  HIT:    8627149  MISS:     323117
L2C LOAD      ACCESS:     549225  HIT:     405827  MISS:     143398
L2C RFO       ACCESS:      63732  HIT:      36130  MISS:      27602
L2C PREFETCH  ACCESS:    8047851  HIT:    7896683  MISS:     151168
L2C WRITEBACK ACCESS:     289458  HIT:     288509  MISS:        949
L2C PREFETCH  REQUESTED:    8106031  ISSUED:    8095473  USEFUL:       7200  USELESS:     143771
L2C AVERAGE MISS LATENCY: 44.8157 cycles
L2C

SHEET
L2C-total_access : 8950266
L2C-total_hit : 8627149
L2C-total_miss : 323117
L2C-load_access : 549225
L2C-load_hit : 405827
L2C-load_miss : 143398
L2C-rfo_access : 63732
L2C-rfo_hit : 36130
L2C-rfo_miss : 27602
L2C-prefetch_access : 8047851
L2C-prefetch_hit : 7896683
L2C-prefetch_miss : 151168
L2C-writeback_access : 289458
L2C-writeback_hit : 288509
L2C-writeback_miss : 949
L2C-prefetch_requested : 8106031
L2C-prefetch_issued : 8095473
L2C-prefetch_useful : 7200
L2C-prefetch_useless : 143771
L2C-Avg_miss_latency : 44.8157
L2C-Morteza_fill_l2_prefetches : 2421589

LLC TOTAL     ACCESS:    1628488  HIT:    1574905  MISS:      53583
LLC LOAD      ACCESS:     143376  HIT:     130513  MISS:      12863
LLC RFO       ACCESS:      27600  HIT:      23164  MISS:       4436
LLC PREFETCH  ACCESS:    1316059  HIT:    1280318  MISS:      35741
LLC WRITEBACK ACCESS:     141453  HIT:     140910  MISS:        543
LLC PREFETCH  REQUESTED:          0  ISSUED:          0  USEFUL:       3981  USELESS:      31153
LLC AVERAGE MISS LATENCY: 164.162 cycles
LLC

SHEET
LLC-total_access : 1628488
LLC-total_hit : 1574905
LLC-total_miss : 53583
LLC-load_access : 143376
LLC-load_hit : 130513
LLC-load_miss : 12863
LLC-rfo_access : 27600
LLC-rfo_hit : 23164
LLC-rfo_miss : 4436
LLC-prefetch_access : 1316059
LLC-prefetch_hit : 1280318
LLC-prefetch_miss : 35741
LLC-writeback_access : 141453
LLC-writeback_hit : 140910
LLC-writeback_miss : 543
LLC-prefetch_requested : 0
LLC-prefetch_issued : 0
LLC-prefetch_useful : 3981
LLC-prefetch_useless : 31153
LLC-Avg_miss_latency : 164.162
LLC-Morteza_fill_l2_prefetches : 1150469

Major fault: 0 Minor fault: 5657
I-Shadow cache 408 bytes
Touched + WorthPF tables 3072 bytes 
MMA filter 174 bytes 
FNL filter 272 bytes 
TOTAL PREFETCHER STORAGE SIZE: 13014 bytes
CPU 0 L1I next line prefetcher final stats

 morteza stats start 

SHEET
fnlfilter_access_cntr : 41814554
iShadow_access_cntr : 41926484
missahead_access_cntr : 8403804
mmafilter_access_cntr : 18334410
touched_access_cntr : 27637296
worthpf_access_cntr : 39277834


morteza stats endCPU 0 L1D next line prefetcher final stats

DRAM Statistics
 CHANNEL 0
 RQ ROW_BUFFER_HIT:       8423  ROW_BUFFER_MISS:      44617
 DBUS_CONGESTED:      24659
 WQ ROW_BUFFER_HIT:       1227  ROW_BUFFER_MISS:      10420  FULL:          0

 AVG_CONGESTED_CYCLE: 5

CPU 0 Branch Prediction Accuracy: 99.913% MPKI: 0.15656 Average ROB Occupancy at Mispredict: 221.11

Branch types
NOT_BRANCH: 41001725 82.0034%
BRANCH_DIRECT_JUMP: 541941 1.08388%
BRANCH_INDIRECT: 59716 0.119432%
BRANCH_CONDITIONAL: 5916854 11.8337%
BRANCH_DIRECT_CALL: 1005465 2.01093%
BRANCH_INDIRECT_CALL: 234433 0.468866%
BRANCH_RETURN: 1239877 2.47975%
BRANCH_OTHER: 0 0%

