Initialize SIGNATURE TABLE
ST_SET: 1
ST_WAY: 256
ST_TAG_BIT: 16
ST_TAG_MASK: ffff

Initialize PATTERN TABLE
PT_SET: 512
PT_WAY: 4
SIG_DELTA_BIT: 7
C_SIG_BIT: 4
C_DELTA_BIT: 4

Initialize PREFETCH FILTER
FILTER_SET: 1024

*** ChampSim Multicore Out-of-Order Simulator ***

Warmup Instructions: 50000000
Simulation Instructions: 50000000
Number of CPUs: 1
LLC sets: 2048
LLC ways: 16
Off-chip DRAM Size: 4096 MB Channels: 1 Width: 64-bit Data Rate: 3200 MT/s

CPU 0 runs /home/mbaradaran/ChampSim/dpc3_traces/server_002.champsimtrace.xz
CPU 0 L1I next line prefetcher
CPU 0 L1D next line prefetcher
Heartbeat CPU 0 instructions: 10000000 cycles: 3581204 heartbeat IPC: 2.79236 cumulative IPC: 2.79236 (Simulation time: 0 hr 1 min 23 sec) 
Heartbeat CPU 0 instructions: 20000002 cycles: 7170070 heartbeat IPC: 2.7864 cumulative IPC: 2.78937 (Simulation time: 0 hr 2 min 44 sec) 
Heartbeat CPU 0 instructions: 30000000 cycles: 10710816 heartbeat IPC: 2.82426 cumulative IPC: 2.80091 (Simulation time: 0 hr 4 min 8 sec) 
Heartbeat CPU 0 instructions: 40000000 cycles: 14261061 heartbeat IPC: 2.81671 cumulative IPC: 2.80484 (Simulation time: 0 hr 5 min 31 sec) 
Heartbeat CPU 0 instructions: 50000001 cycles: 17808832 heartbeat IPC: 2.81867 cumulative IPC: 2.8076 (Simulation time: 0 hr 6 min 50 sec) 

Warmup complete CPU 0 instructions: 50000001 cycles: 17808832 (Simulation time: 0 hr 6 min 50 sec) 

Heartbeat CPU 0 instructions: 60000000 cycles: 24250732 heartbeat IPC: 1.55234 cumulative IPC: 1.55234 (Simulation time: 0 hr 8 min 8 sec) 
Heartbeat CPU 0 instructions: 70000003 cycles: 30685015 heartbeat IPC: 1.55418 cumulative IPC: 1.55326 (Simulation time: 0 hr 9 min 26 sec) 
Heartbeat CPU 0 instructions: 80000003 cycles: 37121528 heartbeat IPC: 1.55364 cumulative IPC: 1.55338 (Simulation time: 0 hr 10 min 47 sec) 
Heartbeat CPU 0 instructions: 90000002 cycles: 43559621 heartbeat IPC: 1.55325 cumulative IPC: 1.55335 (Simulation time: 0 hr 12 min 4 sec) 
Heartbeat CPU 0 instructions: 100000003 cycles: 49994883 heartbeat IPC: 1.55394 cumulative IPC: 1.55347 (Simulation time: 0 hr 13 min 32 sec) 
Finished CPU 0 instructions: 50000002 cycles: 32186051 cumulative IPC: 1.55347 (Simulation time: 0 hr 13 min 32 sec) 

ChampSim completed all CPUs

Region of Interest Statistics

CPU 0 cumulative IPC: 1.55347 instructions: 50000002 cycles: 32186051

SHEET
IPC : 1.55347

L1D TOTAL     ACCESS:   21485781  HIT:   21484973  MISS:        808
L1D LOAD      ACCESS:    6581612  HIT:    6581238  MISS:        374
L1D RFO       ACCESS:    8433045  HIT:    8432931  MISS:        114
L1D PREFETCH  ACCESS:    6471124  HIT:    6470804  MISS:        320
L1D WRITEBACK ACCESS:          0  HIT:          0  MISS:          0
L1D PREFETCH  REQUESTED:    6581670  ISSUED:    6478543  USEFUL:         91  USELESS:        230
L1D AVERAGE MISS LATENCY: 41.5631 cycles
L1D

SHEET
L1D-total_access : 21485781
L1D-total_hit : 21484973
L1D-total_miss : 808
L1D-load_access : 6581612
L1D-load_hit : 6581238
L1D-load_miss : 374
L1D-rfo_access : 8433045
L1D-rfo_hit : 8432931
L1D-rfo_miss : 114
L1D-prefetch_access : 6471124
L1D-prefetch_hit : 6470804
L1D-prefetch_miss : 320
L1D-writeback_access : 0
L1D-writeback_hit : 0
L1D-writeback_miss : 0
L1D-prefetch_requested : 6581670
L1D-prefetch_issued : 6478543
L1D-prefetch_useful : 91
L1D-prefetch_useless : 230
L1D-Avg_miss_latency : 41.5631
L1D-Morteza_fill_l2_prefetches : 0

L1I TOTAL     ACCESS:   15044238  HIT:   12833091  MISS:    2211147
L1I LOAD      ACCESS:    9838488  HIT:    9737737  MISS:     100751
L1I RFO       ACCESS:          0  HIT:          0  MISS:          0
L1I PREFETCH  ACCESS:    5205750  HIT:    3095354  MISS:    2110396
L1I WRITEBACK ACCESS:          0  HIT:          0  MISS:          0
L1I PREFETCH  REQUESTED:    5378563  ISSUED:    5378563  USEFUL:    1734559  USELESS:     375836
L1I AVERAGE MISS LATENCY: 14.2087 cycles
L1I

SHEET
L1I-total_access : 15044238
L1I-total_hit : 12833091
L1I-total_miss : 2211147
L1I-load_access : 9838488
L1I-load_hit : 9737737
L1I-load_miss : 100751
L1I-rfo_access : 0
L1I-rfo_hit : 0
L1I-rfo_miss : 0
L1I-prefetch_access : 5205750
L1I-prefetch_hit : 3095354
L1I-prefetch_miss : 2110396
L1I-writeback_access : 0
L1I-writeback_hit : 0
L1I-writeback_miss : 0
L1I-prefetch_requested : 5378563
L1I-prefetch_issued : 5378563
L1I-prefetch_useful : 1734559
L1I-prefetch_useless : 375836
L1I-Avg_miss_latency : 14.2087
L1I-Morteza_fill_l2_prefetches : 0

L2C TOTAL     ACCESS:    2882329  HIT:    2882006  MISS:        323
L2C LOAD      ACCESS:      79273  HIT:      79194  MISS:         79
L2C RFO       ACCESS:        113  HIT:        110  MISS:          3
L2C PREFETCH  ACCESS:    2802608  HIT:    2802367  MISS:        241
L2C WRITEBACK ACCESS:        335  HIT:        335  MISS:          0
L2C PREFETCH  REQUESTED:    1649816  ISSUED:    1649803  USEFUL:        103  USELESS:        123
L2C AVERAGE MISS LATENCY: 166.118 cycles
L2C

SHEET
L2C-total_access : 2882329
L2C-total_hit : 2882006
L2C-total_miss : 323
L2C-load_access : 79273
L2C-load_hit : 79194
L2C-load_miss : 79
L2C-rfo_access : 113
L2C-rfo_hit : 110
L2C-rfo_miss : 3
L2C-prefetch_access : 2802608
L2C-prefetch_hit : 2802367
L2C-prefetch_miss : 241
L2C-writeback_access : 335
L2C-writeback_hit : 335
L2C-writeback_miss : 0
L2C-prefetch_requested : 1649816
L2C-prefetch_issued : 1649803
L2C-prefetch_useful : 103
L2C-prefetch_useless : 123
L2C-Avg_miss_latency : 166.118
L2C-Morteza_fill_l2_prefetches : 684887

LLC TOTAL     ACCESS:     378525  HIT:     377725  MISS:        800
LLC LOAD      ACCESS:         79  HIT:         64  MISS:         15
LLC RFO       ACCESS:          3  HIT:          1  MISS:          2
LLC PREFETCH  ACCESS:     378333  HIT:     377551  MISS:        782
LLC WRITEBACK ACCESS:        110  HIT:        109  MISS:          1
LLC PREFETCH  REQUESTED:          0  ISSUED:          0  USEFUL:         12  USELESS:        191
LLC AVERAGE MISS LATENCY: 474.767 cycles
LLC

SHEET
LLC-total_access : 378525
LLC-total_hit : 377725
LLC-total_miss : 800
LLC-load_access : 79
LLC-load_hit : 64
LLC-load_miss : 15
LLC-rfo_access : 3
LLC-rfo_hit : 1
LLC-rfo_miss : 2
LLC-prefetch_access : 378333
LLC-prefetch_hit : 377551
LLC-prefetch_miss : 782
LLC-writeback_access : 110
LLC-writeback_hit : 109
LLC-writeback_miss : 1
LLC-prefetch_requested : 0
LLC-prefetch_issued : 0
LLC-prefetch_useful : 12
LLC-prefetch_useless : 191
LLC-Avg_miss_latency : 474.767
LLC-Morteza_fill_l2_prefetches : 377469

Major fault: 0 Minor fault: 1873
I-Shadow cache 408 bytes
Touched + WorthPF tables 3072 bytes 
MMA filter 174 bytes 
FNL filter 272 bytes 
TOTAL PREFETCHER STORAGE SIZE: 13014 bytes
CPU 0 L1I next line prefetcher final stats

 morteza stats start 

SHEET
fnlfilter_access_cntr : 28516863
iShadow_access_cntr : 42950214
missahead_access_cntr : 9029195
mmafilter_access_cntr : 14397667
touched_access_cntr : 23202177
worthpf_access_cntr : 26916455


morteza stats endCPU 0 L1D next line prefetcher final stats

DRAM Statistics
 CHANNEL 0
 RQ ROW_BUFFER_HIT:        175  ROW_BUFFER_MISS:        624
 DBUS_CONGESTED:        602
 WQ ROW_BUFFER_HIT:         79  ROW_BUFFER_MISS:        465  FULL:          0

 AVG_CONGESTED_CYCLE: 6

CPU 0 Branch Prediction Accuracy: 99.8789% MPKI: 0.20388 Average ROB Occupancy at Mispredict: 254.156

Branch types
NOT_BRANCH: 41580695 83.1614%
BRANCH_DIRECT_JUMP: 461630 0.92326%
BRANCH_INDIRECT: 0 0%
BRANCH_CONDITIONAL: 5376437 10.7529%
BRANCH_DIRECT_CALL: 1175775 2.35155%
BRANCH_INDIRECT_CALL: 114840 0.22968%
BRANCH_RETURN: 1290625 2.58125%
BRANCH_OTHER: 0 0%

