Initialize SIGNATURE TABLE
ST_SET: 1
ST_WAY: 256
ST_TAG_BIT: 16
ST_TAG_MASK: ffff

Initialize PATTERN TABLE
PT_SET: 512
PT_WAY: 4
SIG_DELTA_BIT: 7
C_SIG_BIT: 4
C_DELTA_BIT: 4

Initialize PREFETCH FILTER
FILTER_SET: 1024

*** ChampSim Multicore Out-of-Order Simulator ***

Warmup Instructions: 50000000
Simulation Instructions: 50000000
Number of CPUs: 1
LLC sets: 2048
LLC ways: 16
Off-chip DRAM Size: 4096 MB Channels: 1 Width: 64-bit Data Rate: 3200 MT/s

CPU 0 runs /home/mbaradaran/ChampSim/dpc3_traces/server_030.champsimtrace.xz
CPU 0 L1I next line prefetcher
CPU 0 L1D next line prefetcher
Heartbeat CPU 0 instructions: 10000003 cycles: 3512823 heartbeat IPC: 2.84671 cumulative IPC: 2.84671 (Simulation time: 0 hr 1 min 22 sec) 
Heartbeat CPU 0 instructions: 20000003 cycles: 7025503 heartbeat IPC: 2.84683 cumulative IPC: 2.84677 (Simulation time: 0 hr 2 min 44 sec) 
Heartbeat CPU 0 instructions: 30000000 cycles: 10535929 heartbeat IPC: 2.84866 cumulative IPC: 2.8474 (Simulation time: 0 hr 4 min 5 sec) 
Heartbeat CPU 0 instructions: 40000002 cycles: 14047047 heartbeat IPC: 2.8481 cumulative IPC: 2.84757 (Simulation time: 0 hr 5 min 30 sec) 
Heartbeat CPU 0 instructions: 50000002 cycles: 17561068 heartbeat IPC: 2.84574 cumulative IPC: 2.84721 (Simulation time: 0 hr 6 min 52 sec) 

Warmup complete CPU 0 instructions: 50000002 cycles: 17561068 (Simulation time: 0 hr 6 min 52 sec) 

Heartbeat CPU 0 instructions: 60000000 cycles: 25249013 heartbeat IPC: 1.30074 cumulative IPC: 1.30074 (Simulation time: 0 hr 8 min 7 sec) 
Heartbeat CPU 0 instructions: 70000000 cycles: 32995367 heartbeat IPC: 1.29093 cumulative IPC: 1.29582 (Simulation time: 0 hr 9 min 23 sec) 
Heartbeat CPU 0 instructions: 80000001 cycles: 40668141 heartbeat IPC: 1.30331 cumulative IPC: 1.2983 (Simulation time: 0 hr 10 min 38 sec) 
*** Reached end of trace for Core: 0 Repeating trace: /home/mbaradaran/ChampSim/dpc3_traces/server_030.champsimtrace.xz
Heartbeat CPU 0 instructions: 90000002 cycles: 48395895 heartbeat IPC: 1.29404 cumulative IPC: 1.29723 (Simulation time: 0 hr 11 min 58 sec) 
Heartbeat CPU 0 instructions: 100000002 cycles: 56028678 heartbeat IPC: 1.31014 cumulative IPC: 1.29979 (Simulation time: 0 hr 13 min 17 sec) 
Finished CPU 0 instructions: 50000000 cycles: 38467610 cumulative IPC: 1.29979 (Simulation time: 0 hr 13 min 17 sec) 

ChampSim completed all CPUs

Region of Interest Statistics

CPU 0 cumulative IPC: 1.29979 instructions: 50000000 cycles: 38467610

SHEET
IPC : 1.29979

L1D TOTAL     ACCESS:   19609990  HIT:   17533667  MISS:    2076323
L1D LOAD      ACCESS:    6990256  HIT:    5935671  MISS:    1054585
L1D RFO       ACCESS:    6179995  HIT:    5892812  MISS:     287183
L1D PREFETCH  ACCESS:    6439739  HIT:    5705184  MISS:     734555
L1D WRITEBACK ACCESS:          0  HIT:          0  MISS:          0
L1D PREFETCH  REQUESTED:    7044850  ISSUED:    6916386  USEFUL:     179222  USELESS:     555426
L1D AVERAGE MISS LATENCY: 20.2962 cycles
L1D

SHEET
L1D-total_access : 19609990
L1D-total_hit : 17533667
L1D-total_miss : 2076323
L1D-load_access : 6990256
L1D-load_hit : 5935671
L1D-load_miss : 1054585
L1D-rfo_access : 6179995
L1D-rfo_hit : 5892812
L1D-rfo_miss : 287183
L1D-prefetch_access : 6439739
L1D-prefetch_hit : 5705184
L1D-prefetch_miss : 734555
L1D-writeback_access : 0
L1D-writeback_hit : 0
L1D-writeback_miss : 0
L1D-prefetch_requested : 7044850
L1D-prefetch_issued : 6916386
L1D-prefetch_useful : 179222
L1D-prefetch_useless : 555426
L1D-Avg_miss_latency : 20.2962
L1D-Morteza_fill_l2_prefetches : 0

L1I TOTAL     ACCESS:   14818271  HIT:   10212728  MISS:    4605543
L1I LOAD      ACCESS:    9620657  HIT:    8803405  MISS:     817252
L1I RFO       ACCESS:          0  HIT:          0  MISS:          0
L1I PREFETCH  ACCESS:    5197614  HIT:    1409323  MISS:    3788291
L1I WRITEBACK ACCESS:          0  HIT:          0  MISS:          0
L1I PREFETCH  REQUESTED:    5686509  ISSUED:    5686478  USEFUL:    2407386  USELESS:    1380948
L1I AVERAGE MISS LATENCY: 18.9791 cycles
L1I

SHEET
L1I-total_access : 14818271
L1I-total_hit : 10212728
L1I-total_miss : 4605543
L1I-load_access : 9620657
L1I-load_hit : 8803405
L1I-load_miss : 817252
L1I-rfo_access : 0
L1I-rfo_hit : 0
L1I-rfo_miss : 0
L1I-prefetch_access : 5197614
L1I-prefetch_hit : 1409323
L1I-prefetch_miss : 3788291
L1I-writeback_access : 0
L1I-writeback_hit : 0
L1I-writeback_miss : 0
L1I-prefetch_requested : 5686509
L1I-prefetch_issued : 5686478
L1I-prefetch_useful : 2407386
L1I-prefetch_useless : 1380948
L1I-Avg_miss_latency : 18.9791
L1I-Morteza_fill_l2_prefetches : 0

L2C TOTAL     ACCESS:    9309195  HIT:    8184927  MISS:    1124268
L2C LOAD      ACCESS:    1554598  HIT:    1261688  MISS:     292910
L2C RFO       ACCESS:     284005  HIT:     223089  MISS:      60916
L2C PREFETCH  ACCESS:    6855056  HIT:    6088598  MISS:     766458
L2C WRITEBACK ACCESS:     615536  HIT:     611552  MISS:       3984
L2C PREFETCH  REQUESTED:    9044450  ISSUED:    9032965  USEFUL:      36064  USELESS:     730140
L2C AVERAGE MISS LATENCY: 35.0233 cycles
L2C

SHEET
L2C-total_access : 9309195
L2C-total_hit : 8184927
L2C-total_miss : 1124268
L2C-load_access : 1554598
L2C-load_hit : 1261688
L2C-load_miss : 292910
L2C-rfo_access : 284005
L2C-rfo_hit : 223089
L2C-rfo_miss : 60916
L2C-prefetch_access : 6855056
L2C-prefetch_hit : 6088598
L2C-prefetch_miss : 766458
L2C-writeback_access : 615536
L2C-writeback_hit : 611552
L2C-writeback_miss : 3984
L2C-prefetch_requested : 9044450
L2C-prefetch_issued : 9032965
L2C-prefetch_useful : 36064
L2C-prefetch_useless : 730140
L2C-Avg_miss_latency : 35.0233
L2C-Morteza_fill_l2_prefetches : 2174066

LLC TOTAL     ACCESS:    3004050  HIT:    2980881  MISS:      23169
LLC LOAD      ACCESS:     292662  HIT:     289535  MISS:       3127
LLC RFO       ACCESS:      60867  HIT:      59091  MISS:       1776
LLC PREFETCH  ACCESS:    2513140  HIT:    2494955  MISS:      18185
LLC WRITEBACK ACCESS:     137381  HIT:     137300  MISS:         81
LLC PREFETCH  REQUESTED:          0  ISSUED:          0  USEFUL:       1001  USELESS:      15993
LLC AVERAGE MISS LATENCY: 148.302 cycles
LLC

SHEET
LLC-total_access : 3004050
LLC-total_hit : 2980881
LLC-total_miss : 23169
LLC-load_access : 292662
LLC-load_hit : 289535
LLC-load_miss : 3127
LLC-rfo_access : 60867
LLC-rfo_hit : 59091
LLC-rfo_miss : 1776
LLC-prefetch_access : 2513140
LLC-prefetch_hit : 2494955
LLC-prefetch_miss : 18185
LLC-writeback_access : 137381
LLC-writeback_hit : 137300
LLC-writeback_miss : 81
LLC-prefetch_requested : 0
LLC-prefetch_issued : 0
LLC-prefetch_useful : 1001
LLC-prefetch_useless : 15993
LLC-Avg_miss_latency : 148.302
LLC-Morteza_fill_l2_prefetches : 1783942

Major fault: 0 Minor fault: 2046
I-Shadow cache 408 bytes
Touched + WorthPF tables 3072 bytes 
MMA filter 174 bytes 
FNL filter 272 bytes 
TOTAL PREFETCHER STORAGE SIZE: 13014 bytes
CPU 0 L1I next line prefetcher final stats

 morteza stats start 

SHEET
fnlfilter_access_cntr : 33254805
iShadow_access_cntr : 42952648
missahead_access_cntr : 4446893
mmafilter_access_cntr : 10348470
touched_access_cntr : 21014787
worthpf_access_cntr : 33939983


morteza stats endCPU 0 L1D next line prefetcher final stats

DRAM Statistics
 CHANNEL 0
 RQ ROW_BUFFER_HIT:       7209  ROW_BUFFER_MISS:      15879
 DBUS_CONGESTED:       7910
 WQ ROW_BUFFER_HIT:        191  ROW_BUFFER_MISS:       2709  FULL:          0

 AVG_CONGESTED_CYCLE: 5

CPU 0 Branch Prediction Accuracy: 99.8445% MPKI: 0.29148 Average ROB Occupancy at Mispredict: 142.441

Branch types
NOT_BRANCH: 40628081 81.2562%
BRANCH_DIRECT_JUMP: 490941 0.981882%
BRANCH_INDIRECT: 175854 0.351708%
BRANCH_CONDITIONAL: 6321415 12.6428%
BRANCH_DIRECT_CALL: 1002072 2.00414%
BRANCH_INDIRECT_CALL: 189783 0.379566%
BRANCH_RETURN: 1191851 2.3837%
BRANCH_OTHER: 0 0%

