Initialize SIGNATURE TABLE
ST_SET: 1
ST_WAY: 256
ST_TAG_BIT: 16
ST_TAG_MASK: ffff

Initialize PATTERN TABLE
PT_SET: 512
PT_WAY: 4
SIG_DELTA_BIT: 7
C_SIG_BIT: 4
C_DELTA_BIT: 4

Initialize PREFETCH FILTER
FILTER_SET: 1024

*** ChampSim Multicore Out-of-Order Simulator ***

Warmup Instructions: 50000000
Simulation Instructions: 50000000
Number of CPUs: 1
LLC sets: 2048
LLC ways: 16
Off-chip DRAM Size: 4096 MB Channels: 1 Width: 64-bit Data Rate: 3200 MT/s

CPU 0 runs /home/mbaradaran/ChampSim/dpc3_traces/server_010.champsimtrace.xz
CPU 0 L1I next line prefetcher
CPU 0 L1D next line prefetcher
Heartbeat CPU 0 instructions: 10000000 cycles: 3202462 heartbeat IPC: 3.1226 cumulative IPC: 3.1226 (Simulation time: 0 hr 1 min 12 sec) 
Heartbeat CPU 0 instructions: 20000002 cycles: 6401496 heartbeat IPC: 3.12594 cumulative IPC: 3.12427 (Simulation time: 0 hr 2 min 29 sec) 
Heartbeat CPU 0 instructions: 30000001 cycles: 9603942 heartbeat IPC: 3.12261 cumulative IPC: 3.12372 (Simulation time: 0 hr 3 min 49 sec) 
Heartbeat CPU 0 instructions: 40000000 cycles: 12802293 heartbeat IPC: 3.12661 cumulative IPC: 3.12444 (Simulation time: 0 hr 5 min 5 sec) 
Heartbeat CPU 0 instructions: 50000003 cycles: 16006123 heartbeat IPC: 3.12127 cumulative IPC: 3.1238 (Simulation time: 0 hr 6 min 20 sec) 

Warmup complete CPU 0 instructions: 50000003 cycles: 16006123 (Simulation time: 0 hr 6 min 20 sec) 

Heartbeat CPU 0 instructions: 60000001 cycles: 24635316 heartbeat IPC: 1.15886 cumulative IPC: 1.15886 (Simulation time: 0 hr 7 min 26 sec) 
Heartbeat CPU 0 instructions: 70000000 cycles: 33526910 heartbeat IPC: 1.12466 cumulative IPC: 1.1415 (Simulation time: 0 hr 8 min 34 sec) 
Heartbeat CPU 0 instructions: 80000001 cycles: 42504159 heartbeat IPC: 1.11393 cumulative IPC: 1.13216 (Simulation time: 0 hr 9 min 43 sec) 
Heartbeat CPU 0 instructions: 90000002 cycles: 51117637 heartbeat IPC: 1.16097 cumulative IPC: 1.13923 (Simulation time: 0 hr 10 min 48 sec) 
Heartbeat CPU 0 instructions: 100000003 cycles: 72335187 heartbeat IPC: 0.471308 cumulative IPC: 0.887641 (Simulation time: 0 hr 12 min 40 sec) 
Finished CPU 0 instructions: 50000000 cycles: 56329064 cumulative IPC: 0.887641 (Simulation time: 0 hr 12 min 40 sec) 

ChampSim completed all CPUs

Region of Interest Statistics

CPU 0 cumulative IPC: 0.887641 instructions: 50000000 cycles: 56329064

SHEET
IPC : 0.887641

L1D TOTAL     ACCESS:   20475610  HIT:   17249678  MISS:    3225932
L1D LOAD      ACCESS:    7989430  HIT:    6398048  MISS:    1591382
L1D RFO       ACCESS:    4721872  HIT:    4627301  MISS:      94571
L1D PREFETCH  ACCESS:    7764308  HIT:    6224329  MISS:    1539979
L1D WRITEBACK ACCESS:          0  HIT:          0  MISS:          0
L1D PREFETCH  REQUESTED:    8024025  ISSUED:    7925463  USEFUL:     119146  USELESS:    1420805
L1D AVERAGE MISS LATENCY: 24.013 cycles
L1D

SHEET
L1D-total_access : 20475610
L1D-total_hit : 17249678
L1D-total_miss : 3225932
L1D-load_access : 7989430
L1D-load_hit : 6398048
L1D-load_miss : 1591382
L1D-rfo_access : 4721872
L1D-rfo_hit : 4627301
L1D-rfo_miss : 94571
L1D-prefetch_access : 7764308
L1D-prefetch_hit : 6224329
L1D-prefetch_miss : 1539979
L1D-writeback_access : 0
L1D-writeback_hit : 0
L1D-writeback_miss : 0
L1D-prefetch_requested : 8024025
L1D-prefetch_issued : 7925463
L1D-prefetch_useful : 119146
L1D-prefetch_useless : 1420805
L1D-Avg_miss_latency : 24.013
L1D-Morteza_fill_l2_prefetches : 0

L1I TOTAL     ACCESS:   12557425  HIT:   10072962  MISS:    2484463
L1I LOAD      ACCESS:    9933406  HIT:    9184293  MISS:     749113
L1I RFO       ACCESS:          0  HIT:          0  MISS:          0
L1I PREFETCH  ACCESS:    2624019  HIT:     888669  MISS:    1735350
L1I WRITEBACK ACCESS:          0  HIT:          0  MISS:          0
L1I PREFETCH  REQUESTED:    2971830  ISSUED:    2971683  USEFUL:     877460  USELESS:     857827
L1I AVERAGE MISS LATENCY: 29.0298 cycles
L1I

SHEET
L1I-total_access : 12557425
L1I-total_hit : 10072962
L1I-total_miss : 2484463
L1I-load_access : 9933406
L1I-load_hit : 9184293
L1I-load_miss : 749113
L1I-rfo_access : 0
L1I-rfo_hit : 0
L1I-rfo_miss : 0
L1I-prefetch_access : 2624019
L1I-prefetch_hit : 888669
L1I-prefetch_miss : 1735350
L1I-writeback_access : 0
L1I-writeback_hit : 0
L1I-writeback_miss : 0
L1I-prefetch_requested : 2971830
L1I-prefetch_issued : 2971683
L1I-prefetch_useful : 877460
L1I-prefetch_useless : 857827
L1I-Avg_miss_latency : 29.0298
L1I-Morteza_fill_l2_prefetches : 0

L2C TOTAL     ACCESS:    7330010  HIT:    5915170  MISS:    1414840
L2C LOAD      ACCESS:    2161046  HIT:    1793434  MISS:     367612
L2C RFO       ACCESS:      93378  HIT:      46434  MISS:      46944
L2C PREFETCH  ACCESS:    4810186  HIT:    3812565  MISS:     997621
L2C WRITEBACK ACCESS:     265400  HIT:     262737  MISS:       2663
L2C PREFETCH  REQUESTED:    6941851  ISSUED:    6938144  USEFUL:      52746  USELESS:     945800
L2C AVERAGE MISS LATENCY: 51.2494 cycles
L2C

SHEET
L2C-total_access : 7330010
L2C-total_hit : 5915170
L2C-total_miss : 1414840
L2C-load_access : 2161046
L2C-load_hit : 1793434
L2C-load_miss : 367612
L2C-rfo_access : 93378
L2C-rfo_hit : 46434
L2C-rfo_miss : 46944
L2C-prefetch_access : 4810186
L2C-prefetch_hit : 3812565
L2C-prefetch_miss : 997621
L2C-writeback_access : 265400
L2C-writeback_hit : 262737
L2C-writeback_miss : 2663
L2C-prefetch_requested : 6941851
L2C-prefetch_issued : 6938144
L2C-prefetch_useful : 52746
L2C-prefetch_useless : 945800
L2C-Avg_miss_latency : 51.2494
L2C-Morteza_fill_l2_prefetches : 1409702

LLC TOTAL     ACCESS:    2788092  HIT:    2567899  MISS:     220193
LLC LOAD      ACCESS:     367461  HIT:     331996  MISS:      35465
LLC RFO       ACCESS:      46935  HIT:      34673  MISS:      12262
LLC PREFETCH  ACCESS:    2213991  HIT:    2041907  MISS:     172084
LLC WRITEBACK ACCESS:     159705  HIT:     159323  MISS:        382
LLC PREFETCH  REQUESTED:          0  ISSUED:          0  USEFUL:      13977  USELESS:     158319
LLC AVERAGE MISS LATENCY: 172.743 cycles
LLC

SHEET
LLC-total_access : 2788092
LLC-total_hit : 2567899
LLC-total_miss : 220193
LLC-load_access : 367461
LLC-load_hit : 331996
LLC-load_miss : 35465
LLC-rfo_access : 46935
LLC-rfo_hit : 34673
LLC-rfo_miss : 12262
LLC-prefetch_access : 2213991
LLC-prefetch_hit : 2041907
LLC-prefetch_miss : 172084
LLC-writeback_access : 159705
LLC-writeback_hit : 159323
LLC-writeback_miss : 382
LLC-prefetch_requested : 0
LLC-prefetch_issued : 0
LLC-prefetch_useful : 13977
LLC-prefetch_useless : 158319
LLC-Avg_miss_latency : 172.743
LLC-Morteza_fill_l2_prefetches : 1253719

Major fault: 0 Minor fault: 5617
I-Shadow cache 408 bytes
Touched + WorthPF tables 3072 bytes 
MMA filter 174 bytes 
FNL filter 272 bytes 
TOTAL PREFETCHER STORAGE SIZE: 13014 bytes
CPU 0 L1I next line prefetcher final stats

 morteza stats start 

SHEET
fnlfilter_access_cntr : 21031013
iShadow_access_cntr : 41134290
missahead_access_cntr : 2613452
mmafilter_access_cntr : 4950895
touched_access_cntr : 11328924
worthpf_access_cntr : 21665575


morteza stats endCPU 0 L1D next line prefetcher final stats

DRAM Statistics
 CHANNEL 0
 RQ ROW_BUFFER_HIT:      39783  ROW_BUFFER_MISS:     179945
 DBUS_CONGESTED:      96350
 WQ ROW_BUFFER_HIT:      12433  ROW_BUFFER_MISS:      48534  FULL:          0

 AVG_CONGESTED_CYCLE: 5

CPU 0 Branch Prediction Accuracy: 99.5528% MPKI: 0.89798 Average ROB Occupancy at Mispredict: 105.102

Branch types
NOT_BRANCH: 39958768 79.9175%
BRANCH_DIRECT_JUMP: 449946 0.899892%
BRANCH_INDIRECT: 140210 0.28042%
BRANCH_CONDITIONAL: 7679664 15.3593%
BRANCH_DIRECT_CALL: 701578 1.40316%
BRANCH_INDIRECT_CALL: 168971 0.337942%
BRANCH_RETURN: 900560 1.80112%
BRANCH_OTHER: 0 0%

