Initialize SIGNATURE TABLE
ST_SET: 1
ST_WAY: 256
ST_TAG_BIT: 16
ST_TAG_MASK: ffff

Initialize PATTERN TABLE
PT_SET: 512
PT_WAY: 4
SIG_DELTA_BIT: 7
C_SIG_BIT: 4
C_DELTA_BIT: 4

Initialize PREFETCH FILTER
FILTER_SET: 1024

*** ChampSim Multicore Out-of-Order Simulator ***

Warmup Instructions: 50000000
Simulation Instructions: 50000000
Number of CPUs: 1
LLC sets: 2048
LLC ways: 16
Off-chip DRAM Size: 4096 MB Channels: 1 Width: 64-bit Data Rate: 3200 MT/s

CPU 0 runs /home/mbaradaran/ChampSim/dpc3_traces/server_031.champsimtrace.xz
CPU 0 L1I next line prefetcher
CPU 0 L1D next line prefetcher
Heartbeat CPU 0 instructions: 10000003 cycles: 3527707 heartbeat IPC: 2.8347 cumulative IPC: 2.8347 (Simulation time: 0 hr 1 min 34 sec) 
Heartbeat CPU 0 instructions: 20000002 cycles: 7052451 heartbeat IPC: 2.83709 cumulative IPC: 2.83589 (Simulation time: 0 hr 3 min 6 sec) 
Heartbeat CPU 0 instructions: 30000002 cycles: 10578127 heartbeat IPC: 2.83634 cumulative IPC: 2.83604 (Simulation time: 0 hr 4 min 40 sec) 
Heartbeat CPU 0 instructions: 40000003 cycles: 14099381 heartbeat IPC: 2.8399 cumulative IPC: 2.837 (Simulation time: 0 hr 6 min 6 sec) 
Heartbeat CPU 0 instructions: 50000001 cycles: 17622488 heartbeat IPC: 2.8384 cumulative IPC: 2.83728 (Simulation time: 0 hr 7 min 37 sec) 

Warmup complete CPU 0 instructions: 50000001 cycles: 17622488 (Simulation time: 0 hr 7 min 37 sec) 

Heartbeat CPU 0 instructions: 60000001 cycles: 25743357 heartbeat IPC: 1.2314 cumulative IPC: 1.2314 (Simulation time: 0 hr 8 min 58 sec) 
Heartbeat CPU 0 instructions: 70000002 cycles: 33931462 heartbeat IPC: 1.22128 cumulative IPC: 1.22632 (Simulation time: 0 hr 10 min 21 sec) 
*** Reached end of trace for Core: 0 Repeating trace: /home/mbaradaran/ChampSim/dpc3_traces/server_031.champsimtrace.xz
Heartbeat CPU 0 instructions: 80000000 cycles: 41984909 heartbeat IPC: 1.2417 cumulative IPC: 1.2314 (Simulation time: 0 hr 11 min 52 sec) 
Heartbeat CPU 0 instructions: 90000001 cycles: 50014529 heartbeat IPC: 1.24539 cumulative IPC: 1.23487 (Simulation time: 0 hr 13 min 23 sec) 
Heartbeat CPU 0 instructions: 100000000 cycles: 58005121 heartbeat IPC: 1.25147 cumulative IPC: 1.23816 (Simulation time: 0 hr 14 min 52 sec) 
Finished CPU 0 instructions: 50000000 cycles: 40382635 cumulative IPC: 1.23816 (Simulation time: 0 hr 14 min 52 sec) 

ChampSim completed all CPUs

Region of Interest Statistics

CPU 0 cumulative IPC: 1.23816 instructions: 50000000 cycles: 40382635

SHEET
IPC : 1.23816

L1D TOTAL     ACCESS:   19911296  HIT:   18006815  MISS:    1904481
L1D LOAD      ACCESS:    6960944  HIT:    6087934  MISS:     873010
L1D RFO       ACCESS:    6328083  HIT:    6036111  MISS:     291972
L1D PREFETCH  ACCESS:    6622269  HIT:    5882770  MISS:     739499
L1D WRITEBACK ACCESS:          0  HIT:          0  MISS:          0
L1D PREFETCH  REQUESTED:    7026591  ISSUED:    6921113  USEFUL:     174107  USELESS:     565394
L1D AVERAGE MISS LATENCY: 24.8984 cycles
L1D

SHEET
L1D-total_access : 19911296
L1D-total_hit : 18006815
L1D-total_miss : 1904481
L1D-load_access : 6960944
L1D-load_hit : 6087934
L1D-load_miss : 873010
L1D-rfo_access : 6328083
L1D-rfo_hit : 6036111
L1D-rfo_miss : 291972
L1D-prefetch_access : 6622269
L1D-prefetch_hit : 5882770
L1D-prefetch_miss : 739499
L1D-writeback_access : 0
L1D-writeback_hit : 0
L1D-writeback_miss : 0
L1D-prefetch_requested : 7026591
L1D-prefetch_issued : 6921113
L1D-prefetch_useful : 174107
L1D-prefetch_useless : 565394
L1D-Avg_miss_latency : 24.8984
L1D-Morteza_fill_l2_prefetches : 0

L1I TOTAL     ACCESS:   14881106  HIT:   10146770  MISS:    4734336
L1I LOAD      ACCESS:    9498610  HIT:    8664115  MISS:     834495
L1I RFO       ACCESS:          0  HIT:          0  MISS:          0
L1I PREFETCH  ACCESS:    5382496  HIT:    1482655  MISS:    3899841
L1I WRITEBACK ACCESS:          0  HIT:          0  MISS:          0
L1I PREFETCH  REQUESTED:    5860034  ISSUED:    5860034  USEFUL:    2469189  USELESS:    1430647
L1I AVERAGE MISS LATENCY: 18.7825 cycles
L1I

SHEET
L1I-total_access : 14881106
L1I-total_hit : 10146770
L1I-total_miss : 4734336
L1I-load_access : 9498610
L1I-load_hit : 8664115
L1I-load_miss : 834495
L1I-rfo_access : 0
L1I-rfo_hit : 0
L1I-rfo_miss : 0
L1I-prefetch_access : 5382496
L1I-prefetch_hit : 1482655
L1I-prefetch_miss : 3899841
L1I-writeback_access : 0
L1I-writeback_hit : 0
L1I-writeback_miss : 0
L1I-prefetch_requested : 5860034
L1I-prefetch_issued : 5860034
L1I-prefetch_useful : 2469189
L1I-prefetch_useless : 1430647
L1I-Avg_miss_latency : 18.7825
L1I-Morteza_fill_l2_prefetches : 0

L2C TOTAL     ACCESS:    9185197  HIT:    8095143  MISS:    1090054
L2C LOAD      ACCESS:    1515507  HIT:    1238274  MISS:     277233
L2C RFO       ACCESS:     289729  HIT:     218765  MISS:      70964
L2C PREFETCH  ACCESS:    6763157  HIT:    6025562  MISS:     737595
L2C WRITEBACK ACCESS:     616804  HIT:     612542  MISS:       4262
L2C PREFETCH  REQUESTED:    8732396  ISSUED:    8721830  USEFUL:      26222  USELESS:     710891
L2C AVERAGE MISS LATENCY: 40.4178 cycles
L2C

SHEET
L2C-total_access : 9185197
L2C-total_hit : 8095143
L2C-total_miss : 1090054
L2C-load_access : 1515507
L2C-load_hit : 1238274
L2C-load_miss : 277233
L2C-rfo_access : 289729
L2C-rfo_hit : 218765
L2C-rfo_miss : 70964
L2C-prefetch_access : 6763157
L2C-prefetch_hit : 6025562
L2C-prefetch_miss : 737595
L2C-writeback_access : 616804
L2C-writeback_hit : 612542
L2C-writeback_miss : 4262
L2C-prefetch_requested : 8732396
L2C-prefetch_issued : 8721830
L2C-prefetch_useful : 26222
L2C-prefetch_useless : 710891
L2C-Avg_miss_latency : 40.4178
L2C-Morteza_fill_l2_prefetches : 2061879

LLC TOTAL     ACCESS:    2847890  HIT:    2766195  MISS:      81695
LLC LOAD      ACCESS:     277170  HIT:     257992  MISS:      19178
LLC RFO       ACCESS:      70961  HIT:      66774  MISS:       4187
LLC PREFETCH  ACCESS:    2368093  HIT:    2310289  MISS:      57804
LLC WRITEBACK ACCESS:     131666  HIT:     131140  MISS:        526
LLC PREFETCH  REQUESTED:          0  ISSUED:          0  USEFUL:       2815  USELESS:      55569
LLC AVERAGE MISS LATENCY: 159.079 cycles
LLC

SHEET
LLC-total_access : 2847890
LLC-total_hit : 2766195
LLC-total_miss : 81695
LLC-load_access : 277170
LLC-load_hit : 257992
LLC-load_miss : 19178
LLC-rfo_access : 70961
LLC-rfo_hit : 66774
LLC-rfo_miss : 4187
LLC-prefetch_access : 2368093
LLC-prefetch_hit : 2310289
LLC-prefetch_miss : 57804
LLC-writeback_access : 131666
LLC-writeback_hit : 131140
LLC-writeback_miss : 526
LLC-prefetch_requested : 0
LLC-prefetch_issued : 0
LLC-prefetch_useful : 2815
LLC-prefetch_useless : 55569
LLC-Avg_miss_latency : 159.079
LLC-Morteza_fill_l2_prefetches : 1642106

Major fault: 0 Minor fault: 6050
I-Shadow cache 408 bytes
Touched + WorthPF tables 3072 bytes 
MMA filter 174 bytes 
FNL filter 272 bytes 
TOTAL PREFETCHER STORAGE SIZE: 13014 bytes
CPU 0 L1I next line prefetcher final stats

 morteza stats start 

SHEET
fnlfilter_access_cntr : 33954470
iShadow_access_cntr : 42628040
missahead_access_cntr : 4590122
mmafilter_access_cntr : 10602246
touched_access_cntr : 21391023
worthpf_access_cntr : 34557304


morteza stats endCPU 0 L1D next line prefetcher final stats

DRAM Statistics
 CHANNEL 0
 RQ ROW_BUFFER_HIT:      22172  ROW_BUFFER_MISS:      58994
 DBUS_CONGESTED:      35877
 WQ ROW_BUFFER_HIT:        729  ROW_BUFFER_MISS:       5029  FULL:          0

 AVG_CONGESTED_CYCLE: 5

CPU 0 Branch Prediction Accuracy: 99.6894% MPKI: 0.58048 Average ROB Occupancy at Mispredict: 130.703

Branch types
NOT_BRANCH: 40655675 81.3114%
BRANCH_DIRECT_JUMP: 546484 1.09297%
BRANCH_INDIRECT: 172434 0.344868%
BRANCH_CONDITIONAL: 6207588 12.4152%
BRANCH_DIRECT_CALL: 1018499 2.037%
BRANCH_INDIRECT_CALL: 190374 0.380748%
BRANCH_RETURN: 1208857 2.41771%
BRANCH_OTHER: 0 0%

