Initialize SIGNATURE TABLE
ST_SET: 1
ST_WAY: 256
ST_TAG_BIT: 16
ST_TAG_MASK: ffff

Initialize PATTERN TABLE
PT_SET: 512
PT_WAY: 4
SIG_DELTA_BIT: 7
C_SIG_BIT: 4
C_DELTA_BIT: 4

Initialize PREFETCH FILTER
FILTER_SET: 1024

*** ChampSim Multicore Out-of-Order Simulator ***

Warmup Instructions: 50000000
Simulation Instructions: 50000000
Number of CPUs: 1
LLC sets: 2048
LLC ways: 16
Off-chip DRAM Size: 4096 MB Channels: 1 Width: 64-bit Data Rate: 3200 MT/s

CPU 0 runs /home/mbaradaran/ChampSim/dpc3_traces/server_001.champsimtrace.xz
CPU 0 L1I next line prefetcher
CPU 0 L1D next line prefetcher
Heartbeat CPU 0 instructions: 10000002 cycles: 3156763 heartbeat IPC: 3.1678 cumulative IPC: 3.1678 (Simulation time: 0 hr 1 min 12 sec) 
Heartbeat CPU 0 instructions: 20000000 cycles: 6373744 heartbeat IPC: 3.1085 cumulative IPC: 3.13787 (Simulation time: 0 hr 2 min 24 sec) 
Heartbeat CPU 0 instructions: 30000003 cycles: 9562738 heartbeat IPC: 3.13579 cumulative IPC: 3.13718 (Simulation time: 0 hr 3 min 34 sec) 
Heartbeat CPU 0 instructions: 40000002 cycles: 12772435 heartbeat IPC: 3.11556 cumulative IPC: 3.13174 (Simulation time: 0 hr 4 min 48 sec) 
Heartbeat CPU 0 instructions: 50000003 cycles: 15993654 heartbeat IPC: 3.10442 cumulative IPC: 3.12624 (Simulation time: 0 hr 6 min 1 sec) 

Warmup complete CPU 0 instructions: 50000003 cycles: 15993654 (Simulation time: 0 hr 6 min 1 sec) 

Heartbeat CPU 0 instructions: 60000000 cycles: 23610088 heartbeat IPC: 1.31295 cumulative IPC: 1.31295 (Simulation time: 0 hr 7 min 4 sec) 
Heartbeat CPU 0 instructions: 70000002 cycles: 30719456 heartbeat IPC: 1.4066 cumulative IPC: 1.35816 (Simulation time: 0 hr 8 min 7 sec) 
Heartbeat CPU 0 instructions: 80000002 cycles: 37989568 heartbeat IPC: 1.37549 cumulative IPC: 1.36389 (Simulation time: 0 hr 9 min 9 sec) 
Heartbeat CPU 0 instructions: 90000002 cycles: 45455766 heartbeat IPC: 1.33937 cumulative IPC: 1.35768 (Simulation time: 0 hr 10 min 13 sec) 
Heartbeat CPU 0 instructions: 100000003 cycles: 52660818 heartbeat IPC: 1.38792 cumulative IPC: 1.36362 (Simulation time: 0 hr 11 min 15 sec) 
Finished CPU 0 instructions: 50000000 cycles: 36667164 cumulative IPC: 1.36362 (Simulation time: 0 hr 11 min 15 sec) 

ChampSim completed all CPUs

Region of Interest Statistics

CPU 0 cumulative IPC: 1.36362 instructions: 50000000 cycles: 36667164

SHEET
IPC : 1.36362

L1D TOTAL     ACCESS:   17742272  HIT:   17231036  MISS:     511236
L1D LOAD      ACCESS:    6505048  HIT:    6299731  MISS:     205317
L1D RFO       ACCESS:    5058227  HIT:    4975498  MISS:      82729
L1D PREFETCH  ACCESS:    6178997  HIT:    5955807  MISS:     223190
L1D WRITEBACK ACCESS:          0  HIT:          0  MISS:          0
L1D PREFETCH  REQUESTED:    6535141  ISSUED:    6357675  USEFUL:     131441  USELESS:      91877
L1D AVERAGE MISS LATENCY: 94.5227 cycles
L1D

SHEET
L1D-total_access : 17742272
L1D-total_hit : 17231036
L1D-total_miss : 511236
L1D-load_access : 6505048
L1D-load_hit : 6299731
L1D-load_miss : 205317
L1D-rfo_access : 5058227
L1D-rfo_hit : 4975498
L1D-rfo_miss : 82729
L1D-prefetch_access : 6178997
L1D-prefetch_hit : 5955807
L1D-prefetch_miss : 223190
L1D-writeback_access : 0
L1D-writeback_hit : 0
L1D-writeback_miss : 0
L1D-prefetch_requested : 6535141
L1D-prefetch_issued : 6357675
L1D-prefetch_useful : 131441
L1D-prefetch_useless : 91877
L1D-Avg_miss_latency : 94.5227
L1D-Morteza_fill_l2_prefetches : 0

L1I TOTAL     ACCESS:   10147231  HIT:    8942032  MISS:    1205199
L1I LOAD      ACCESS:    8242548  HIT:    8030858  MISS:     211690
L1I RFO       ACCESS:          0  HIT:          0  MISS:          0
L1I PREFETCH  ACCESS:    1904683  HIT:     911174  MISS:     993509
L1I WRITEBACK ACCESS:          0  HIT:          0  MISS:          0
L1I PREFETCH  REQUESTED:    1994728  ISSUED:    1994688  USEFUL:     641718  USELESS:     351842
L1I AVERAGE MISS LATENCY: 29.2693 cycles
L1I

SHEET
L1I-total_access : 10147231
L1I-total_hit : 8942032
L1I-total_miss : 1205199
L1I-load_access : 8242548
L1I-load_hit : 8030858
L1I-load_miss : 211690
L1I-rfo_access : 0
L1I-rfo_hit : 0
L1I-rfo_miss : 0
L1I-prefetch_access : 1904683
L1I-prefetch_hit : 911174
L1I-prefetch_miss : 993509
L1I-writeback_access : 0
L1I-writeback_hit : 0
L1I-writeback_miss : 0
L1I-prefetch_requested : 1994728
L1I-prefetch_issued : 1994688
L1I-prefetch_useful : 641718
L1I-prefetch_useless : 351842
L1I-Avg_miss_latency : 29.2693
L1I-Morteza_fill_l2_prefetches : 0

L2C TOTAL     ACCESS:    2578993  HIT:    2052791  MISS:     526202
L2C LOAD      ACCESS:     341886  HIT:     218232  MISS:     123654
L2C RFO       ACCESS:      80956  HIT:      10065  MISS:      70891
L2C PREFETCH  ACCESS:    1948292  HIT:    1617184  MISS:     331108
L2C WRITEBACK ACCESS:     207859  HIT:     207310  MISS:        549
L2C PREFETCH  REQUESTED:    2634988  ISSUED:    2631446  USEFUL:      26567  USELESS:     304447
L2C AVERAGE MISS LATENCY: 121.772 cycles
L2C

SHEET
L2C-total_access : 2578993
L2C-total_hit : 2052791
L2C-total_miss : 526202
L2C-load_access : 341886
L2C-load_hit : 218232
L2C-load_miss : 123654
L2C-rfo_access : 80956
L2C-rfo_hit : 10065
L2C-rfo_miss : 70891
L2C-prefetch_access : 1948292
L2C-prefetch_hit : 1617184
L2C-prefetch_miss : 331108
L2C-writeback_access : 207859
L2C-writeback_hit : 207310
L2C-writeback_miss : 549
L2C-prefetch_requested : 2634988
L2C-prefetch_issued : 2631446
L2C-prefetch_useful : 26567
L2C-prefetch_useless : 304447
L2C-Avg_miss_latency : 121.772
L2C-Morteza_fill_l2_prefetches : 694005

LLC TOTAL     ACCESS:    1275654  HIT:     912470  MISS:     363184
LLC LOAD      ACCESS:     123508  HIT:      82770  MISS:      40738
LLC RFO       ACCESS:      70888  HIT:       6749  MISS:      64139
LLC PREFETCH  ACCESS:     912756  HIT:     654727  MISS:     258029
LLC WRITEBACK ACCESS:     168502  HIT:     168224  MISS:        278
LLC PREFETCH  REQUESTED:          0  ISSUED:          0  USEFUL:      30238  USELESS:     223818
LLC AVERAGE MISS LATENCY: 221.32 cycles
LLC

SHEET
LLC-total_access : 1275654
LLC-total_hit : 912470
LLC-total_miss : 363184
LLC-load_access : 123508
LLC-load_hit : 82770
LLC-load_miss : 40738
LLC-rfo_access : 70888
LLC-rfo_hit : 6749
LLC-rfo_miss : 64139
LLC-prefetch_access : 912756
LLC-prefetch_hit : 654727
LLC-prefetch_miss : 258029
LLC-writeback_access : 168502
LLC-writeback_hit : 168224
LLC-writeback_miss : 278
LLC-prefetch_requested : 0
LLC-prefetch_issued : 0
LLC-prefetch_useful : 30238
LLC-prefetch_useless : 223818
LLC-Avg_miss_latency : 221.32
LLC-Morteza_fill_l2_prefetches : 451959

Major fault: 0 Minor fault: 16717
I-Shadow cache 408 bytes
Touched + WorthPF tables 3072 bytes 
MMA filter 174 bytes 
FNL filter 272 bytes 
TOTAL PREFETCHER STORAGE SIZE: 13014 bytes
CPU 0 L1I next line prefetcher final stats

 morteza stats start 

SHEET
fnlfilter_access_cntr : 13782306
iShadow_access_cntr : 36398904
missahead_access_cntr : 1645799
mmafilter_access_cntr : 3750210
touched_access_cntr : 7619775
worthpf_access_cntr : 13487196


morteza stats endCPU 0 L1D next line prefetcher final stats

DRAM Statistics
 CHANNEL 0
 RQ ROW_BUFFER_HIT:     115256  ROW_BUFFER_MISS:     247606
 DBUS_CONGESTED:     248783
 WQ ROW_BUFFER_HIT:      35021  ROW_BUFFER_MISS:     124718  FULL:          0

 AVG_CONGESTED_CYCLE: 6

CPU 0 Branch Prediction Accuracy: 99.5889% MPKI: 0.70108 Average ROB Occupancy at Mispredict: 97.5867

Branch types
NOT_BRANCH: 41473584 82.9472%
BRANCH_DIRECT_JUMP: 347941 0.695882%
BRANCH_INDIRECT: 148212 0.296424%
BRANCH_CONDITIONAL: 6817277 13.6346%
BRANCH_DIRECT_CALL: 570725 1.14145%
BRANCH_INDIRECT_CALL: 25133 0.050266%
BRANCH_RETURN: 617123 1.23425%
BRANCH_OTHER: 0 0%

