Initialize SIGNATURE TABLE
ST_SET: 1
ST_WAY: 256
ST_TAG_BIT: 16
ST_TAG_MASK: ffff

Initialize PATTERN TABLE
PT_SET: 512
PT_WAY: 4
SIG_DELTA_BIT: 7
C_SIG_BIT: 4
C_DELTA_BIT: 4

Initialize PREFETCH FILTER
FILTER_SET: 1024

*** ChampSim Multicore Out-of-Order Simulator ***

Warmup Instructions: 50000000
Simulation Instructions: 50000000
Number of CPUs: 1
LLC sets: 2048
LLC ways: 16
Off-chip DRAM Size: 4096 MB Channels: 1 Width: 64-bit Data Rate: 3200 MT/s

CPU 0 runs /home/mbaradaran/ChampSim/dpc3_traces/server_025.champsimtrace.xz
CPU 0 L1I next line prefetcher
CPU 0 L1D next line prefetcher
Heartbeat CPU 0 instructions: 10000003 cycles: 3532513 heartbeat IPC: 2.83085 cumulative IPC: 2.83085 (Simulation time: 0 hr 1 min 21 sec) 
Heartbeat CPU 0 instructions: 20000000 cycles: 7072651 heartbeat IPC: 2.82475 cumulative IPC: 2.82779 (Simulation time: 0 hr 2 min 43 sec) 
Heartbeat CPU 0 instructions: 30000001 cycles: 10605256 heartbeat IPC: 2.83077 cumulative IPC: 2.82879 (Simulation time: 0 hr 4 min 2 sec) 
Heartbeat CPU 0 instructions: 40000003 cycles: 14143293 heartbeat IPC: 2.82643 cumulative IPC: 2.8282 (Simulation time: 0 hr 5 min 21 sec) 
Heartbeat CPU 0 instructions: 50000001 cycles: 17679812 heartbeat IPC: 2.82764 cumulative IPC: 2.82808 (Simulation time: 0 hr 6 min 41 sec) 

Warmup complete CPU 0 instructions: 50000001 cycles: 17679812 (Simulation time: 0 hr 6 min 41 sec) 

Heartbeat CPU 0 instructions: 60000002 cycles: 25486453 heartbeat IPC: 1.28096 cumulative IPC: 1.28096 (Simulation time: 0 hr 8 min 0 sec) 
Heartbeat CPU 0 instructions: 70000000 cycles: 33369759 heartbeat IPC: 1.2685 cumulative IPC: 1.2747 (Simulation time: 0 hr 9 min 22 sec) 
Heartbeat CPU 0 instructions: 80000002 cycles: 41156815 heartbeat IPC: 1.28418 cumulative IPC: 1.27785 (Simulation time: 0 hr 10 min 44 sec) 
Heartbeat CPU 0 instructions: 90000001 cycles: 48380539 heartbeat IPC: 1.38433 cumulative IPC: 1.3029 (Simulation time: 0 hr 12 min 5 sec) 
Heartbeat CPU 0 instructions: 100000003 cycles: 55166687 heartbeat IPC: 1.47359 cumulative IPC: 1.3338 (Simulation time: 0 hr 13 min 29 sec) 
Finished CPU 0 instructions: 50000002 cycles: 37486875 cumulative IPC: 1.3338 (Simulation time: 0 hr 13 min 29 sec) 

ChampSim completed all CPUs

Region of Interest Statistics

CPU 0 cumulative IPC: 1.3338 instructions: 50000002 cycles: 37486875

SHEET
IPC : 1.3338

L1D TOTAL     ACCESS:   20587840  HIT:   19161968  MISS:    1425872
L1D LOAD      ACCESS:    7256272  HIT:    6638851  MISS:     617421
L1D RFO       ACCESS:    6385255  HIT:    6136698  MISS:     248557
L1D PREFETCH  ACCESS:    6946313  HIT:    6386419  MISS:     559894
L1D WRITEBACK ACCESS:          0  HIT:          0  MISS:          0
L1D PREFETCH  REQUESTED:    7299836  ISSUED:    7128969  USEFUL:     132641  USELESS:     427248
L1D AVERAGE MISS LATENCY: 25.6766 cycles
L1D

SHEET
L1D-total_access : 20587840
L1D-total_hit : 19161968
L1D-total_miss : 1425872
L1D-load_access : 7256272
L1D-load_hit : 6638851
L1D-load_miss : 617421
L1D-rfo_access : 6385255
L1D-rfo_hit : 6136698
L1D-rfo_miss : 248557
L1D-prefetch_access : 6946313
L1D-prefetch_hit : 6386419
L1D-prefetch_miss : 559894
L1D-writeback_access : 0
L1D-writeback_hit : 0
L1D-writeback_miss : 0
L1D-prefetch_requested : 7299836
L1D-prefetch_issued : 7128969
L1D-prefetch_useful : 132641
L1D-prefetch_useless : 427248
L1D-Avg_miss_latency : 25.6766
L1D-Morteza_fill_l2_prefetches : 0

L1I TOTAL     ACCESS:   13848767  HIT:    9787892  MISS:    4060875
L1I LOAD      ACCESS:    9325637  HIT:    8487173  MISS:     838464
L1I RFO       ACCESS:          0  HIT:          0  MISS:          0
L1I PREFETCH  ACCESS:    4523130  HIT:    1300719  MISS:    3222411
L1I WRITEBACK ACCESS:          0  HIT:          0  MISS:          0
L1I PREFETCH  REQUESTED:    5010933  ISSUED:    5010927  USEFUL:    1813898  USELESS:    1408518
L1I AVERAGE MISS LATENCY: 19.9145 cycles
L1I

SHEET
L1I-total_access : 13848767
L1I-total_hit : 9787892
L1I-total_miss : 4060875
L1I-load_access : 9325637
L1I-load_hit : 8487173
L1I-load_miss : 838464
L1I-rfo_access : 0
L1I-rfo_hit : 0
L1I-rfo_miss : 0
L1I-prefetch_access : 4523130
L1I-prefetch_hit : 1300719
L1I-prefetch_miss : 3222411
L1I-writeback_access : 0
L1I-writeback_hit : 0
L1I-writeback_miss : 0
L1I-prefetch_requested : 5010933
L1I-prefetch_issued : 5010927
L1I-prefetch_useful : 1813898
L1I-prefetch_useless : 1408518
L1I-Avg_miss_latency : 19.9145
L1I-Morteza_fill_l2_prefetches : 0

L2C TOTAL     ACCESS:    7418633  HIT:    6249246  MISS:    1169387
L2C LOAD      ACCESS:    1274896  HIT:     980143  MISS:     294753
L2C RFO       ACCESS:     246931  HIT:     148189  MISS:      98742
L2C PREFETCH  ACCESS:    5400057  HIT:    4631862  MISS:     768195
L2C WRITEBACK ACCESS:     496749  HIT:     489052  MISS:       7697
L2C PREFETCH  REQUESTED:    6943974  ISSUED:    6938264  USEFUL:      45624  USELESS:     722358
L2C AVERAGE MISS LATENCY: 36.9168 cycles
L2C

SHEET
L2C-total_access : 7418633
L2C-total_hit : 6249246
L2C-total_miss : 1169387
L2C-load_access : 1274896
L2C-load_hit : 980143
L2C-load_miss : 294753
L2C-rfo_access : 246931
L2C-rfo_hit : 148189
L2C-rfo_miss : 98742
L2C-prefetch_access : 5400057
L2C-prefetch_hit : 4631862
L2C-prefetch_miss : 768195
L2C-writeback_access : 496749
L2C-writeback_hit : 489052
L2C-writeback_miss : 7697
L2C-prefetch_requested : 6943974
L2C-prefetch_issued : 6938264
L2C-prefetch_useful : 45624
L2C-prefetch_useless : 722358
L2C-Avg_miss_latency : 36.9168
L2C-Morteza_fill_l2_prefetches : 1550544

LLC TOTAL     ACCESS:    2636484  HIT:    2604724  MISS:      31760
LLC LOAD      ACCESS:     294524  HIT:     290801  MISS:       3723
LLC RFO       ACCESS:      98704  HIT:      87982  MISS:      10722
LLC PREFETCH  ACCESS:    2065827  HIT:    2048645  MISS:      17182
LLC WRITEBACK ACCESS:     177429  HIT:     177296  MISS:        133
LLC PREFETCH  REQUESTED:          0  ISSUED:          0  USEFUL:       1269  USELESS:      14642
LLC AVERAGE MISS LATENCY: 177.685 cycles
LLC

SHEET
LLC-total_access : 2636484
LLC-total_hit : 2604724
LLC-total_miss : 31760
LLC-load_access : 294524
LLC-load_hit : 290801
LLC-load_miss : 3723
LLC-rfo_access : 98704
LLC-rfo_hit : 87982
LLC-rfo_miss : 10722
LLC-prefetch_access : 2065827
LLC-prefetch_hit : 2048645
LLC-prefetch_miss : 17182
LLC-writeback_access : 177429
LLC-writeback_hit : 177296
LLC-writeback_miss : 133
LLC-prefetch_requested : 0
LLC-prefetch_issued : 0
LLC-prefetch_useful : 1269
LLC-prefetch_useless : 14642
LLC-Avg_miss_latency : 177.685
LLC-Morteza_fill_l2_prefetches : 1341277

Major fault: 0 Minor fault: 2465
I-Shadow cache 408 bytes
Touched + WorthPF tables 3072 bytes 
MMA filter 174 bytes 
FNL filter 272 bytes 
TOTAL PREFETCHER STORAGE SIZE: 13014 bytes
CPU 0 L1I next line prefetcher final stats

 morteza stats start 

SHEET
fnlfilter_access_cntr : 31162534
iShadow_access_cntr : 42103144
missahead_access_cntr : 3787035
mmafilter_access_cntr : 8633220
touched_access_cntr : 18940386
worthpf_access_cntr : 32117002


morteza stats endCPU 0 L1D next line prefetcher final stats

DRAM Statistics
 CHANNEL 0
 RQ ROW_BUFFER_HIT:       9903  ROW_BUFFER_MISS:      21714
 DBUS_CONGESTED:      20711
 WQ ROW_BUFFER_HIT:       1429  ROW_BUFFER_MISS:      12318  FULL:          0

 AVG_CONGESTED_CYCLE: 6

CPU 0 Branch Prediction Accuracy: 99.8142% MPKI: 0.34676 Average ROB Occupancy at Mispredict: 162.807

Branch types
NOT_BRANCH: 40668788 81.3376%
BRANCH_DIRECT_JUMP: 531700 1.0634%
BRANCH_INDIRECT: 199025 0.39805%
BRANCH_CONDITIONAL: 6211476 12.423%
BRANCH_DIRECT_CALL: 1010908 2.02182%
BRANCH_INDIRECT_CALL: 183501 0.367002%
BRANCH_RETURN: 1194411 2.38882%
BRANCH_OTHER: 0 0%

