Initialize SIGNATURE TABLE
ST_SET: 1
ST_WAY: 256
ST_TAG_BIT: 16
ST_TAG_MASK: ffff

Initialize PATTERN TABLE
PT_SET: 512
PT_WAY: 4
SIG_DELTA_BIT: 7
C_SIG_BIT: 4
C_DELTA_BIT: 4

Initialize PREFETCH FILTER
FILTER_SET: 1024

*** ChampSim Multicore Out-of-Order Simulator ***

Warmup Instructions: 50000000
Simulation Instructions: 50000000
Number of CPUs: 1
LLC sets: 2048
LLC ways: 16
Off-chip DRAM Size: 4096 MB Channels: 1 Width: 64-bit Data Rate: 3200 MT/s

CPU 0 runs /home/mbaradaran/ChampSim/dpc3_traces/spec_x264_001.champsimtrace.xz
CPU 0 L1I next line prefetcher
CPU 0 L1D next line prefetcher
Heartbeat CPU 0 instructions: 10000002 cycles: 3060304 heartbeat IPC: 3.26765 cumulative IPC: 3.26765 (Simulation time: 0 hr 0 min 52 sec) 
Heartbeat CPU 0 instructions: 20000002 cycles: 6110684 heartbeat IPC: 3.27828 cumulative IPC: 3.27296 (Simulation time: 0 hr 1 min 42 sec) 
Heartbeat CPU 0 instructions: 30000002 cycles: 9146596 heartbeat IPC: 3.2939 cumulative IPC: 3.27991 (Simulation time: 0 hr 2 min 31 sec) 
Heartbeat CPU 0 instructions: 40000000 cycles: 12191469 heartbeat IPC: 3.28421 cumulative IPC: 3.28098 (Simulation time: 0 hr 3 min 19 sec) 
Heartbeat CPU 0 instructions: 50000000 cycles: 15234667 heartbeat IPC: 3.28602 cumulative IPC: 3.28199 (Simulation time: 0 hr 4 min 6 sec) 

Warmup complete CPU 0 instructions: 50000004 cycles: 15234668 (Simulation time: 0 hr 4 min 6 sec) 

Heartbeat CPU 0 instructions: 60000002 cycles: 21170919 heartbeat IPC: 1.68456 cumulative IPC: 1.68456 (Simulation time: 0 hr 4 min 36 sec) 
Heartbeat CPU 0 instructions: 70000000 cycles: 27086602 heartbeat IPC: 1.69042 cumulative IPC: 1.68749 (Simulation time: 0 hr 5 min 6 sec) 
Heartbeat CPU 0 instructions: 80000003 cycles: 33147963 heartbeat IPC: 1.64979 cumulative IPC: 1.67473 (Simulation time: 0 hr 5 min 37 sec) 
Heartbeat CPU 0 instructions: 90000002 cycles: 39187228 heartbeat IPC: 1.65583 cumulative IPC: 1.66997 (Simulation time: 0 hr 6 min 7 sec) 
Heartbeat CPU 0 instructions: 100000002 cycles: 45092139 heartbeat IPC: 1.69351 cumulative IPC: 1.67462 (Simulation time: 0 hr 6 min 36 sec) 
Finished CPU 0 instructions: 50000002 cycles: 29857472 cumulative IPC: 1.67462 (Simulation time: 0 hr 6 min 36 sec) 

ChampSim completed all CPUs

Region of Interest Statistics

CPU 0 cumulative IPC: 1.67462 instructions: 50000002 cycles: 29857472

SHEET
IPC : 1.67462

L1D TOTAL     ACCESS:   12966707  HIT:   12805654  MISS:     161053
L1D LOAD      ACCESS:    5095747  HIT:    5040593  MISS:      55154
L1D RFO       ACCESS:    2880307  HIT:    2846074  MISS:      34233
L1D PREFETCH  ACCESS:    4990653  HIT:    4918987  MISS:      71666
L1D WRITEBACK ACCESS:          0  HIT:          0  MISS:          0
L1D PREFETCH  REQUESTED:    5112235  ISSUED:    5045613  USEFUL:      25803  USELESS:      45672
L1D AVERAGE MISS LATENCY: 39.8587 cycles
L1D

SHEET
L1D-total_access : 12966707
L1D-total_hit : 12805654
L1D-total_miss : 161053
L1D-load_access : 5095747
L1D-load_hit : 5040593
L1D-load_miss : 55154
L1D-rfo_access : 2880307
L1D-rfo_hit : 2846074
L1D-rfo_miss : 34233
L1D-prefetch_access : 4990653
L1D-prefetch_hit : 4918987
L1D-prefetch_miss : 71666
L1D-writeback_access : 0
L1D-writeback_hit : 0
L1D-writeback_miss : 0
L1D-prefetch_requested : 5112235
L1D-prefetch_issued : 5045613
L1D-prefetch_useful : 25803
L1D-prefetch_useless : 45672
L1D-Avg_miss_latency : 39.8587
L1D-Morteza_fill_l2_prefetches : 0

L1I TOTAL     ACCESS:    8569950  HIT:    8217990  MISS:     351960
L1I LOAD      ACCESS:    8038645  HIT:    8030470  MISS:       8175
L1I RFO       ACCESS:          0  HIT:          0  MISS:          0
L1I PREFETCH  ACCESS:     531305  HIT:     187520  MISS:     343785
L1I WRITEBACK ACCESS:          0  HIT:          0  MISS:          0
L1I PREFETCH  REQUESTED:     540869  ISSUED:     540869  USEFUL:     272321  USELESS:      71471
L1I AVERAGE MISS LATENCY: 14.7515 cycles
L1I

SHEET
L1I-total_access : 8569950
L1I-total_hit : 8217990
L1I-total_miss : 351960
L1I-load_access : 8038645
L1I-load_hit : 8030470
L1I-load_miss : 8175
L1I-rfo_access : 0
L1I-rfo_hit : 0
L1I-rfo_miss : 0
L1I-prefetch_access : 531305
L1I-prefetch_hit : 187520
L1I-prefetch_miss : 343785
L1I-writeback_access : 0
L1I-writeback_hit : 0
L1I-writeback_miss : 0
L1I-prefetch_requested : 540869
L1I-prefetch_issued : 540869
L1I-prefetch_useful : 272321
L1I-prefetch_useless : 71471
L1I-Avg_miss_latency : 14.7515
L1I-Morteza_fill_l2_prefetches : 0

L2C TOTAL     ACCESS:     734731  HIT:     695924  MISS:      38807
L2C LOAD      ACCESS:      61398  HIT:      55757  MISS:       5641
L2C RFO       ACCESS:      33983  HIT:      21900  MISS:      12083
L2C PREFETCH  ACCESS:     596301  HIT:     575287  MISS:      21014
L2C WRITEBACK ACCESS:      43049  HIT:      42980  MISS:         69
L2C PREFETCH  REQUESTED:     550624  ISSUED:     549176  USEFUL:       8903  USELESS:      12333
L2C AVERAGE MISS LATENCY: 104.27 cycles
L2C

SHEET
L2C-total_access : 734731
L2C-total_hit : 695924
L2C-total_miss : 38807
L2C-load_access : 61398
L2C-load_hit : 55757
L2C-load_miss : 5641
L2C-rfo_access : 33983
L2C-rfo_hit : 21900
L2C-rfo_miss : 12083
L2C-prefetch_access : 596301
L2C-prefetch_hit : 575287
L2C-prefetch_miss : 21014
L2C-writeback_access : 43049
L2C-writeback_hit : 42980
L2C-writeback_miss : 69
L2C-prefetch_requested : 550624
L2C-prefetch_issued : 549176
L2C-prefetch_useful : 8903
L2C-prefetch_useless : 12333
L2C-Avg_miss_latency : 104.27
L2C-Morteza_fill_l2_prefetches : 197011

LLC TOTAL     ACCESS:     134501  HIT:     105195  MISS:      29306
LLC LOAD      ACCESS:       5640  HIT:       3516  MISS:       2124
LLC RFO       ACCESS:      12083  HIT:        472  MISS:      11611
LLC PREFETCH  ACCESS:     103161  HIT:      87662  MISS:      15499
LLC WRITEBACK ACCESS:      13617  HIT:      13545  MISS:         72
LLC PREFETCH  REQUESTED:          0  ISSUED:          0  USEFUL:       1697  USELESS:      14022
LLC AVERAGE MISS LATENCY: 165.826 cycles
LLC

SHEET
LLC-total_access : 134501
LLC-total_hit : 105195
LLC-total_miss : 29306
LLC-load_access : 5640
LLC-load_hit : 3516
LLC-load_miss : 2124
LLC-rfo_access : 12083
LLC-rfo_hit : 472
LLC-rfo_miss : 11611
LLC-prefetch_access : 103161
LLC-prefetch_hit : 87662
LLC-prefetch_miss : 15499
LLC-writeback_access : 13617
LLC-writeback_hit : 13545
LLC-writeback_miss : 72
LLC-prefetch_requested : 0
LLC-prefetch_issued : 0
LLC-prefetch_useful : 1697
LLC-prefetch_useless : 14022
LLC-Avg_miss_latency : 165.826
LLC-Morteza_fill_l2_prefetches : 71951

Major fault: 0 Minor fault: 1284
I-Shadow cache 408 bytes
Touched + WorthPF tables 3072 bytes 
MMA filter 174 bytes 
FNL filter 272 bytes 
TOTAL PREFETCHER STORAGE SIZE: 13014 bytes
CPU 0 L1I next line prefetcher final stats

 morteza stats start 

SHEET
fnlfilter_access_cntr : 3787915
iShadow_access_cntr : 34076388
missahead_access_cntr : 667070
mmafilter_access_cntr : 1269533
touched_access_cntr : 2144058
worthpf_access_cntr : 3626205


morteza stats endCPU 0 L1D next line prefetcher final stats

DRAM Statistics
 CHANNEL 0
 RQ ROW_BUFFER_HIT:       9033  ROW_BUFFER_MISS:      20201
 DBUS_CONGESTED:      12402
 WQ ROW_BUFFER_HIT:       3004  ROW_BUFFER_MISS:       9869  FULL:          0

 AVG_CONGESTED_CYCLE: 6

CPU 0 Branch Prediction Accuracy: 97.1633% MPKI: 1.73704 Average ROB Occupancy at Mispredict: 42.1896

Branch types
NOT_BRANCH: 46937921 93.8758%
BRANCH_DIRECT_JUMP: 170816 0.341632%
BRANCH_INDIRECT: 0 0%
BRANCH_CONDITIONAL: 2532774 5.06555%
BRANCH_DIRECT_CALL: 114227 0.228454%
BRANCH_INDIRECT_CALL: 64863 0.129726%
BRANCH_RETURN: 179089 0.358178%
BRANCH_OTHER: 0 0%

