Initialize SIGNATURE TABLE
ST_SET: 1
ST_WAY: 256
ST_TAG_BIT: 16
ST_TAG_MASK: ffff

Initialize PATTERN TABLE
PT_SET: 512
PT_WAY: 4
SIG_DELTA_BIT: 7
C_SIG_BIT: 4
C_DELTA_BIT: 4

Initialize PREFETCH FILTER
FILTER_SET: 1024

*** ChampSim Multicore Out-of-Order Simulator ***

Warmup Instructions: 50000000
Simulation Instructions: 50000000
Number of CPUs: 1
LLC sets: 2048
LLC ways: 16
Off-chip DRAM Size: 4096 MB Channels: 1 Width: 64-bit Data Rate: 3200 MT/s

CPU 0 runs /home/mbaradaran/ChampSim/dpc3_traces/spec_gobmk_001.champsimtrace.xz
CPU 0 L1I next line prefetcher
CPU 0 L1D next line prefetcher
Heartbeat CPU 0 instructions: 10000003 cycles: 3506910 heartbeat IPC: 2.85151 cumulative IPC: 2.85151 (Simulation time: 0 hr 1 min 5 sec) 
Heartbeat CPU 0 instructions: 20000002 cycles: 6987338 heartbeat IPC: 2.87321 cumulative IPC: 2.86232 (Simulation time: 0 hr 2 min 13 sec) 
Heartbeat CPU 0 instructions: 30000002 cycles: 10506607 heartbeat IPC: 2.8415 cumulative IPC: 2.85535 (Simulation time: 0 hr 3 min 14 sec) 
Heartbeat CPU 0 instructions: 40000001 cycles: 14026047 heartbeat IPC: 2.84136 cumulative IPC: 2.85184 (Simulation time: 0 hr 4 min 14 sec) 
Heartbeat CPU 0 instructions: 50000001 cycles: 17566357 heartbeat IPC: 2.82461 cumulative IPC: 2.84635 (Simulation time: 0 hr 5 min 13 sec) 

Warmup complete CPU 0 instructions: 50000001 cycles: 17566357 (Simulation time: 0 hr 5 min 13 sec) 

Heartbeat CPU 0 instructions: 60000000 cycles: 26768189 heartbeat IPC: 1.08674 cumulative IPC: 1.08674 (Simulation time: 0 hr 6 min 0 sec) 
Heartbeat CPU 0 instructions: 70000002 cycles: 35662291 heartbeat IPC: 1.12434 cumulative IPC: 1.10522 (Simulation time: 0 hr 6 min 46 sec) 
Heartbeat CPU 0 instructions: 80000003 cycles: 44868448 heartbeat IPC: 1.08623 cumulative IPC: 1.09882 (Simulation time: 0 hr 7 min 33 sec) 
Heartbeat CPU 0 instructions: 90000001 cycles: 53677144 heartbeat IPC: 1.13524 cumulative IPC: 1.1077 (Simulation time: 0 hr 8 min 19 sec) 
Heartbeat CPU 0 instructions: 100000003 cycles: 62884940 heartbeat IPC: 1.08604 cumulative IPC: 1.1033 (Simulation time: 0 hr 9 min 5 sec) 
Finished CPU 0 instructions: 50000002 cycles: 45318583 cumulative IPC: 1.1033 (Simulation time: 0 hr 9 min 5 sec) 

ChampSim completed all CPUs

Region of Interest Statistics

CPU 0 cumulative IPC: 1.1033 instructions: 50000002 cycles: 45318583

SHEET
IPC : 1.1033

L1D TOTAL     ACCESS:   18149066  HIT:   17769475  MISS:     379591
L1D LOAD      ACCESS:    7291145  HIT:    7156886  MISS:     134259
L1D RFO       ACCESS:    3705849  HIT:    3601373  MISS:     104476
L1D PREFETCH  ACCESS:    7152072  HIT:    7011216  MISS:     140856
L1D WRITEBACK ACCESS:          0  HIT:          0  MISS:          0
L1D PREFETCH  REQUESTED:    7296343  ISSUED:    7213319  USEFUL:      46139  USELESS:      94723
L1D AVERAGE MISS LATENCY: 34.0587 cycles
L1D

SHEET
L1D-total_access : 18149066
L1D-total_hit : 17769475
L1D-total_miss : 379591
L1D-load_access : 7291145
L1D-load_hit : 7156886
L1D-load_miss : 134259
L1D-rfo_access : 3705849
L1D-rfo_hit : 3601373
L1D-rfo_miss : 104476
L1D-prefetch_access : 7152072
L1D-prefetch_hit : 7011216
L1D-prefetch_miss : 140856
L1D-writeback_access : 0
L1D-writeback_hit : 0
L1D-writeback_miss : 0
L1D-prefetch_requested : 7296343
L1D-prefetch_issued : 7213319
L1D-prefetch_useful : 46139
L1D-prefetch_useless : 94723
L1D-Avg_miss_latency : 34.0587
L1D-Morteza_fill_l2_prefetches : 0

L1I TOTAL     ACCESS:   11765466  HIT:   10441506  MISS:    1323960
L1I LOAD      ACCESS:    8991911  HIT:    8641486  MISS:     350425
L1I RFO       ACCESS:          0  HIT:          0  MISS:          0
L1I PREFETCH  ACCESS:    2773555  HIT:    1800020  MISS:     973535
L1I WRITEBACK ACCESS:          0  HIT:          0  MISS:          0
L1I PREFETCH  REQUESTED:    2932086  ISSUED:    2932086  USEFUL:     510069  USELESS:     463423
L1I AVERAGE MISS LATENCY: 14.5399 cycles
L1I

SHEET
L1I-total_access : 11765466
L1I-total_hit : 10441506
L1I-total_miss : 1323960
L1I-load_access : 8991911
L1I-load_hit : 8641486
L1I-load_miss : 350425
L1I-rfo_access : 0
L1I-rfo_hit : 0
L1I-rfo_miss : 0
L1I-prefetch_access : 2773555
L1I-prefetch_hit : 1800020
L1I-prefetch_miss : 973535
L1I-writeback_access : 0
L1I-writeback_hit : 0
L1I-writeback_miss : 0
L1I-prefetch_requested : 2932086
L1I-prefetch_issued : 2932086
L1I-prefetch_useful : 510069
L1I-prefetch_useless : 463423
L1I-Avg_miss_latency : 14.5399
L1I-Morteza_fill_l2_prefetches : 0

L2C TOTAL     ACCESS:    2683847  HIT:    2558518  MISS:     125329
L2C LOAD      ACCESS:     422149  HIT:     384885  MISS:      37264
L2C RFO       ACCESS:     104125  HIT:      70479  MISS:      33646
L2C PREFETCH  ACCESS:    2018271  HIT:    1963911  MISS:      54360
L2C WRITEBACK ACCESS:     139302  HIT:     139243  MISS:         59
L2C PREFETCH  REQUESTED:    2127436  ISSUED:    2127222  USEFUL:       4903  USELESS:      49852
L2C AVERAGE MISS LATENCY: 66.8732 cycles
L2C

SHEET
L2C-total_access : 2683847
L2C-total_hit : 2558518
L2C-total_miss : 125329
L2C-load_access : 422149
L2C-load_hit : 384885
L2C-load_miss : 37264
L2C-rfo_access : 104125
L2C-rfo_hit : 70479
L2C-rfo_miss : 33646
L2C-prefetch_access : 2018271
L2C-prefetch_hit : 1963911
L2C-prefetch_miss : 54360
L2C-writeback_access : 139302
L2C-writeback_hit : 139243
L2C-writeback_miss : 59
L2C-prefetch_requested : 2127436
L2C-prefetch_issued : 2127222
L2C-prefetch_useful : 4903
L2C-prefetch_useless : 49852
L2C-Avg_miss_latency : 66.8732
L2C-Morteza_fill_l2_prefetches : 882671

LLC TOTAL     ACCESS:     324957  HIT:     282333  MISS:      42624
LLC LOAD      ACCESS:      37259  HIT:      28892  MISS:       8367
LLC RFO       ACCESS:      33646  HIT:      25596  MISS:       8050
LLC PREFETCH  ACCESS:     209683  HIT:     183818  MISS:      25865
LLC WRITEBACK ACCESS:      44369  HIT:      44027  MISS:        342
LLC PREFETCH  REQUESTED:          0  ISSUED:          0  USEFUL:       1534  USELESS:      22480
LLC AVERAGE MISS LATENCY: 178.619 cycles
LLC

SHEET
LLC-total_access : 324957
LLC-total_hit : 282333
LLC-total_miss : 42624
LLC-load_access : 37259
LLC-load_hit : 28892
LLC-load_miss : 8367
LLC-rfo_access : 33646
LLC-rfo_hit : 25596
LLC-rfo_miss : 8050
LLC-prefetch_access : 209683
LLC-prefetch_hit : 183818
LLC-prefetch_miss : 25865
LLC-writeback_access : 44369
LLC-writeback_hit : 44027
LLC-writeback_miss : 342
LLC-prefetch_requested : 0
LLC-prefetch_issued : 0
LLC-prefetch_useful : 1534
LLC-prefetch_useless : 22480
LLC-Avg_miss_latency : 178.619
LLC-Morteza_fill_l2_prefetches : 140799

Major fault: 0 Minor fault: 4160
I-Shadow cache 408 bytes
Touched + WorthPF tables 3072 bytes 
MMA filter 174 bytes 
FNL filter 272 bytes 
TOTAL PREFETCHER STORAGE SIZE: 13014 bytes
CPU 0 L1I next line prefetcher final stats

 morteza stats start 

SHEET
fnlfilter_access_cntr : 16568612
iShadow_access_cntr : 40954844
missahead_access_cntr : 2359226
mmafilter_access_cntr : 3496165
touched_access_cntr : 8514744
worthpf_access_cntr : 16364629


morteza stats endCPU 0 L1D next line prefetcher final stats

DRAM Statistics
 CHANNEL 0
 RQ ROW_BUFFER_HIT:       5710  ROW_BUFFER_MISS:      36572
 DBUS_CONGESTED:      27743
 WQ ROW_BUFFER_HIT:       1818  ROW_BUFFER_MISS:      16490  FULL:          0

 AVG_CONGESTED_CYCLE: 5

CPU 0 Branch Prediction Accuracy: 94.7729% MPKI: 9.72684 Average ROB Occupancy at Mispredict: 50.7371

Branch types
NOT_BRANCH: 40695382 81.3908%
BRANCH_DIRECT_JUMP: 422107 0.844214%
BRANCH_INDIRECT: 65 0.00013%
BRANCH_CONDITIONAL: 8105005 16.21%
BRANCH_DIRECT_CALL: 374913 0.749826%
BRANCH_INDIRECT_CALL: 13657 0.027314%
BRANCH_RETURN: 388556 0.777112%
BRANCH_OTHER: 0 0%

