Initialize SIGNATURE TABLE
ST_SET: 1
ST_WAY: 256
ST_TAG_BIT: 16
ST_TAG_MASK: ffff

Initialize PATTERN TABLE
PT_SET: 512
PT_WAY: 4
SIG_DELTA_BIT: 7
C_SIG_BIT: 4
C_DELTA_BIT: 4

Initialize PREFETCH FILTER
FILTER_SET: 1024

*** ChampSim Multicore Out-of-Order Simulator ***

Warmup Instructions: 50000000
Simulation Instructions: 50000000
Number of CPUs: 1
LLC sets: 2048
LLC ways: 16
Off-chip DRAM Size: 4096 MB Channels: 1 Width: 64-bit Data Rate: 3200 MT/s

CPU 0 runs /home/mbaradaran/ChampSim/dpc3_traces/client_002.champsimtrace.xz
CPU 0 L1D next line prefetcher
Heartbeat CPU 0 instructions: 10000000 cycles: 3405127 heartbeat IPC: 2.93675 cumulative IPC: 2.93675 (Simulation time: 0 hr 1 min 9 sec) 
Heartbeat CPU 0 instructions: 20000002 cycles: 6861004 heartbeat IPC: 2.89362 cumulative IPC: 2.91503 (Simulation time: 0 hr 2 min 24 sec) 
Heartbeat CPU 0 instructions: 30000001 cycles: 10294058 heartbeat IPC: 2.91286 cumulative IPC: 2.9143 (Simulation time: 0 hr 3 min 36 sec) 
Heartbeat CPU 0 instructions: 40000002 cycles: 13727056 heartbeat IPC: 2.91291 cumulative IPC: 2.91395 (Simulation time: 0 hr 4 min 47 sec) 
Heartbeat CPU 0 instructions: 50000002 cycles: 17167990 heartbeat IPC: 2.90619 cumulative IPC: 2.9124 (Simulation time: 0 hr 6 min 2 sec) 

Warmup complete CPU 0 instructions: 50000002 cycles: 17167990 (Simulation time: 0 hr 6 min 2 sec) 

Heartbeat CPU 0 instructions: 60000002 cycles: 24184847 heartbeat IPC: 1.42514 cumulative IPC: 1.42514 (Simulation time: 0 hr 6 min 56 sec) 
Heartbeat CPU 0 instructions: 70000000 cycles: 31316092 heartbeat IPC: 1.40228 cumulative IPC: 1.41362 (Simulation time: 0 hr 7 min 50 sec) 
Heartbeat CPU 0 instructions: 80000003 cycles: 38304418 heartbeat IPC: 1.43096 cumulative IPC: 1.41935 (Simulation time: 0 hr 8 min 47 sec) 
Heartbeat CPU 0 instructions: 90000001 cycles: 45868338 heartbeat IPC: 1.32207 cumulative IPC: 1.39371 (Simulation time: 0 hr 9 min 43 sec) 
Heartbeat CPU 0 instructions: 100000003 cycles: 52956229 heartbeat IPC: 1.41086 cumulative IPC: 1.39711 (Simulation time: 0 hr 10 min 36 sec) 
Finished CPU 0 instructions: 50000001 cycles: 35788239 cumulative IPC: 1.39711 (Simulation time: 0 hr 10 min 36 sec) 

ChampSim completed all CPUs

Region of Interest Statistics

CPU 0 cumulative IPC: 1.39711 instructions: 50000001 cycles: 35788239

SHEET
IPC : 1.39711

L1D TOTAL     ACCESS:   20006387  HIT:   19666773  MISS:     339614
L1D LOAD      ACCESS:    6917135  HIT:    6801691  MISS:     115444
L1D RFO       ACCESS:    6444838  HIT:    6355254  MISS:      89584
L1D PREFETCH  ACCESS:    6644414  HIT:    6509828  MISS:     134586
L1D WRITEBACK ACCESS:          0  HIT:          0  MISS:          0
L1D PREFETCH  REQUESTED:    6927840  ISSUED:    6716897  USEFUL:      55642  USELESS:      79087
L1D AVERAGE MISS LATENCY: 48.6343 cycles
L1D

SHEET
L1D-total_access : 20006387
L1D-total_hit : 19666773
L1D-total_miss : 339614
L1D-load_access : 6917135
L1D-load_hit : 6801691
L1D-load_miss : 115444
L1D-rfo_access : 6444838
L1D-rfo_hit : 6355254
L1D-rfo_miss : 89584
L1D-prefetch_access : 6644414
L1D-prefetch_hit : 6509828
L1D-prefetch_miss : 134586
L1D-writeback_access : 0
L1D-writeback_hit : 0
L1D-writeback_miss : 0
L1D-prefetch_requested : 6927840
L1D-prefetch_issued : 6716897
L1D-prefetch_useful : 55642
L1D-prefetch_useless : 79087
L1D-Avg_miss_latency : 48.6343
L1D-Morteza_fill_l2_prefetches : 0

L1I TOTAL     ACCESS:    9575637  HIT:    8834317  MISS:     741320
L1I LOAD      ACCESS:    9575637  HIT:    8834317  MISS:     741320
L1I RFO       ACCESS:          0  HIT:          0  MISS:          0
L1I PREFETCH  ACCESS:          0  HIT:          0  MISS:          0
L1I WRITEBACK ACCESS:          0  HIT:          0  MISS:          0
L1I PREFETCH  REQUESTED:          0  ISSUED:          0  USEFUL:          0  USELESS:          0
L1I AVERAGE MISS LATENCY: 18.4272 cycles
L1I

SHEET
L1I-total_access : 9575637
L1I-total_hit : 8834317
L1I-total_miss : 741320
L1I-load_access : 9575637
L1I-load_hit : 8834317
L1I-load_miss : 741320
L1I-rfo_access : 0
L1I-rfo_hit : 0
L1I-rfo_miss : 0
L1I-prefetch_access : 0
L1I-prefetch_hit : 0
L1I-prefetch_miss : 0
L1I-writeback_access : 0
L1I-writeback_hit : 0
L1I-writeback_miss : 0
L1I-prefetch_requested : 0
L1I-prefetch_issued : 0
L1I-prefetch_useful : 0
L1I-prefetch_useless : 0
L1I-Avg_miss_latency : 18.4272
L1I-Morteza_fill_l2_prefetches : 0

L2C TOTAL     ACCESS:    1775823  HIT:    1535793  MISS:     240030
L2C LOAD      ACCESS:     848184  HIT:     724309  MISS:     123875
L2C RFO       ACCESS:      88648  HIT:      23743  MISS:      64905
L2C PREFETCH  ACCESS:     713442  HIT:     662558  MISS:      50884
L2C WRITEBACK ACCESS:     125549  HIT:     125183  MISS:        366
L2C PREFETCH  REQUESTED:     923637  ISSUED:     923629  USEFUL:       5599  USELESS:      45231
L2C AVERAGE MISS LATENCY: 62.6351 cycles
L2C

SHEET
L2C-total_access : 1775823
L2C-total_hit : 1535793
L2C-total_miss : 240030
L2C-load_access : 848184
L2C-load_hit : 724309
L2C-load_miss : 123875
L2C-rfo_access : 88648
L2C-rfo_hit : 23743
L2C-rfo_miss : 64905
L2C-prefetch_access : 713442
L2C-prefetch_hit : 662558
L2C-prefetch_miss : 50884
L2C-writeback_access : 125549
L2C-writeback_hit : 125183
L2C-writeback_miss : 366
L2C-prefetch_requested : 923637
L2C-prefetch_issued : 923629
L2C-prefetch_useful : 5599
L2C-prefetch_useless : 45231
L2C-Avg_miss_latency : 62.6351
L2C-Morteza_fill_l2_prefetches : 569164

LLC TOTAL     ACCESS:     580509  HIT:     519294  MISS:      61215
LLC LOAD      ACCESS:     123843  HIT:     116578  MISS:       7265
LLC RFO       ACCESS:      64903  HIT:      35371  MISS:      29532
LLC PREFETCH  ACCESS:     308556  HIT:     284393  MISS:      24163
LLC WRITEBACK ACCESS:      83207  HIT:      82952  MISS:        255
LLC PREFETCH  REQUESTED:          0  ISSUED:          0  USEFUL:       6128  USELESS:      17653
LLC AVERAGE MISS LATENCY: 174.599 cycles
LLC

SHEET
LLC-total_access : 580509
LLC-total_hit : 519294
LLC-total_miss : 61215
LLC-load_access : 123843
LLC-load_hit : 116578
LLC-load_miss : 7265
LLC-rfo_access : 64903
LLC-rfo_hit : 35371
LLC-rfo_miss : 29532
LLC-prefetch_access : 308556
LLC-prefetch_hit : 284393
LLC-prefetch_miss : 24163
LLC-writeback_access : 83207
LLC-writeback_hit : 82952
LLC-writeback_miss : 255
LLC-prefetch_requested : 0
LLC-prefetch_issued : 0
LLC-prefetch_useful : 6128
LLC-prefetch_useless : 17653
LLC-Avg_miss_latency : 174.599
LLC-Morteza_fill_l2_prefetches : 244181

Major fault: 0 Minor fault: 3091
CPU 0 L1D next line prefetcher final stats

DRAM Statistics
 CHANNEL 0
 RQ ROW_BUFFER_HIT:      21913  ROW_BUFFER_MISS:      39045
 DBUS_CONGESTED:      42025
 WQ ROW_BUFFER_HIT:       9360  ROW_BUFFER_MISS:      27387  FULL:          0

 AVG_CONGESTED_CYCLE: 6

CPU 0 Branch Prediction Accuracy: 99.2117% MPKI: 1.49752 Average ROB Occupancy at Mispredict: 75.7981

Branch types
NOT_BRANCH: 40501616 81.0032%
BRANCH_DIRECT_JUMP: 517397 1.03479%
BRANCH_INDIRECT: 112348 0.224696%
BRANCH_CONDITIONAL: 6698737 13.3975%
BRANCH_DIRECT_CALL: 960974 1.92195%
BRANCH_INDIRECT_CALL: 123707 0.247414%
BRANCH_RETURN: 1084929 2.16986%
BRANCH_OTHER: 0 0%

