Initialize SIGNATURE TABLE
ST_SET: 1
ST_WAY: 256
ST_TAG_BIT: 16
ST_TAG_MASK: ffff

Initialize PATTERN TABLE
PT_SET: 512
PT_WAY: 4
SIG_DELTA_BIT: 7
C_SIG_BIT: 4
C_DELTA_BIT: 4

Initialize PREFETCH FILTER
FILTER_SET: 1024

*** ChampSim Multicore Out-of-Order Simulator ***

Warmup Instructions: 50000000
Simulation Instructions: 50000000
Number of CPUs: 1
LLC sets: 2048
LLC ways: 16
Off-chip DRAM Size: 4096 MB Channels: 1 Width: 64-bit Data Rate: 3200 MT/s

CPU 0 runs /home/mbaradaran/ChampSim/dpc3_traces/client_008.champsimtrace.xz
CPU 0 L1D next line prefetcher
Heartbeat CPU 0 instructions: 10000001 cycles: 3753642 heartbeat IPC: 2.66408 cumulative IPC: 2.66408 (Simulation time: 0 hr 1 min 21 sec) 
Heartbeat CPU 0 instructions: 20000001 cycles: 7528855 heartbeat IPC: 2.64886 cumulative IPC: 2.65645 (Simulation time: 0 hr 2 min 39 sec) 
Heartbeat CPU 0 instructions: 30000000 cycles: 11255492 heartbeat IPC: 2.68338 cumulative IPC: 2.66537 (Simulation time: 0 hr 4 min 1 sec) 
Heartbeat CPU 0 instructions: 40000002 cycles: 15048992 heartbeat IPC: 2.63609 cumulative IPC: 2.65799 (Simulation time: 0 hr 5 min 25 sec) 
Heartbeat CPU 0 instructions: 50000003 cycles: 18839777 heartbeat IPC: 2.63798 cumulative IPC: 2.65396 (Simulation time: 0 hr 6 min 53 sec) 

Warmup complete CPU 0 instructions: 50000003 cycles: 18839777 (Simulation time: 0 hr 6 min 53 sec) 

Heartbeat CPU 0 instructions: 60000000 cycles: 28334016 heartbeat IPC: 1.05327 cumulative IPC: 1.05327 (Simulation time: 0 hr 8 min 11 sec) 
Heartbeat CPU 0 instructions: 70000000 cycles: 37446339 heartbeat IPC: 1.09741 cumulative IPC: 1.07489 (Simulation time: 0 hr 9 min 31 sec) 
Heartbeat CPU 0 instructions: 80000001 cycles: 46760546 heartbeat IPC: 1.07363 cumulative IPC: 1.07447 (Simulation time: 0 hr 10 min 42 sec) 
Heartbeat CPU 0 instructions: 90000001 cycles: 54156521 heartbeat IPC: 1.35209 cumulative IPC: 1.13261 (Simulation time: 0 hr 11 min 49 sec) 
Heartbeat CPU 0 instructions: 100000001 cycles: 62223467 heartbeat IPC: 1.23963 cumulative IPC: 1.15251 (Simulation time: 0 hr 13 min 0 sec) 
Finished CPU 0 instructions: 50000002 cycles: 43383691 cumulative IPC: 1.15251 (Simulation time: 0 hr 13 min 0 sec) 

ChampSim completed all CPUs

Region of Interest Statistics

CPU 0 cumulative IPC: 1.15251 instructions: 50000002 cycles: 43383691

SHEET
IPC : 1.15251

L1D TOTAL     ACCESS:   20987945  HIT:   19357614  MISS:    1630331
L1D LOAD      ACCESS:    8296391  HIT:    7504488  MISS:     791903
L1D RFO       ACCESS:    4840517  HIT:    4732870  MISS:     107647
L1D PREFETCH  ACCESS:    7851037  HIT:    7120256  MISS:     730781
L1D WRITEBACK ACCESS:          0  HIT:          0  MISS:          0
L1D PREFETCH  REQUESTED:    8366189  ISSUED:    8199912  USEFUL:     209632  USELESS:     521154
L1D AVERAGE MISS LATENCY: 32.1572 cycles
L1D

SHEET
L1D-total_access : 20987945
L1D-total_hit : 19357614
L1D-total_miss : 1630331
L1D-load_access : 8296391
L1D-load_hit : 7504488
L1D-load_miss : 791903
L1D-rfo_access : 4840517
L1D-rfo_hit : 4732870
L1D-rfo_miss : 107647
L1D-prefetch_access : 7851037
L1D-prefetch_hit : 7120256
L1D-prefetch_miss : 730781
L1D-writeback_access : 0
L1D-writeback_hit : 0
L1D-writeback_miss : 0
L1D-prefetch_requested : 8366189
L1D-prefetch_issued : 8199912
L1D-prefetch_useful : 209632
L1D-prefetch_useless : 521154
L1D-Avg_miss_latency : 32.1572
L1D-Morteza_fill_l2_prefetches : 0

L1I TOTAL     ACCESS:    9652268  HIT:    8904110  MISS:     748158
L1I LOAD      ACCESS:    9652268  HIT:    8904110  MISS:     748158
L1I RFO       ACCESS:          0  HIT:          0  MISS:          0
L1I PREFETCH  ACCESS:          0  HIT:          0  MISS:          0
L1I WRITEBACK ACCESS:          0  HIT:          0  MISS:          0
L1I PREFETCH  REQUESTED:          0  ISSUED:          0  USEFUL:          0  USELESS:          0
L1I AVERAGE MISS LATENCY: 17.1753 cycles
L1I

SHEET
L1I-total_access : 9652268
L1I-total_hit : 8904110
L1I-total_miss : 748158
L1I-load_access : 9652268
L1I-load_hit : 8904110
L1I-load_miss : 748158
L1I-rfo_access : 0
L1I-rfo_hit : 0
L1I-rfo_miss : 0
L1I-prefetch_access : 0
L1I-prefetch_hit : 0
L1I-prefetch_miss : 0
L1I-writeback_access : 0
L1I-writeback_hit : 0
L1I-writeback_miss : 0
L1I-prefetch_requested : 0
L1I-prefetch_issued : 0
L1I-prefetch_useful : 0
L1I-prefetch_useless : 0
L1I-Avg_miss_latency : 17.1753
L1I-Morteza_fill_l2_prefetches : 0

L2C TOTAL     ACCESS:    3761718  HIT:    3323523  MISS:     438195
L2C LOAD      ACCESS:    1496487  HIT:    1307840  MISS:     188647
L2C RFO       ACCESS:     102438  HIT:      18183  MISS:      84255
L2C PREFETCH  ACCESS:    1980759  HIT:    1815859  MISS:     164900
L2C WRITEBACK ACCESS:     182034  HIT:     181641  MISS:        393
L2C PREFETCH  REQUESTED:    2694351  ISSUED:    2694092  USEFUL:      16697  USELESS:     147963
L2C AVERAGE MISS LATENCY: 74.7003 cycles
L2C

SHEET
L2C-total_access : 3761718
L2C-total_hit : 3323523
L2C-total_miss : 438195
L2C-load_access : 1496487
L2C-load_hit : 1307840
L2C-load_miss : 188647
L2C-rfo_access : 102438
L2C-rfo_hit : 18183
L2C-rfo_miss : 84255
L2C-prefetch_access : 1980759
L2C-prefetch_hit : 1815859
L2C-prefetch_miss : 164900
L2C-writeback_access : 182034
L2C-writeback_hit : 181641
L2C-writeback_miss : 393
L2C-prefetch_requested : 2694351
L2C-prefetch_issued : 2694092
L2C-prefetch_useful : 16697
L2C-prefetch_useless : 147963
L2C-Avg_miss_latency : 74.7003
L2C-Morteza_fill_l2_prefetches : 1210433

LLC TOTAL     ACCESS:    1327144  HIT:    1147370  MISS:     179774
LLC LOAD      ACCESS:     188387  HIT:     163455  MISS:      24932
LLC RFO       ACCESS:      84249  HIT:      16867  MISS:      67382
LLC PREFETCH  ACCESS:     918848  HIT:     831749  MISS:      87099
LLC WRITEBACK ACCESS:     135660  HIT:     135299  MISS:        361
LLC PREFETCH  REQUESTED:          0  ISSUED:          0  USEFUL:      27265  USELESS:      65782
LLC AVERAGE MISS LATENCY: 163.071 cycles
LLC

SHEET
LLC-total_access : 1327144
LLC-total_hit : 1147370
LLC-total_miss : 179774
LLC-load_access : 188387
LLC-load_hit : 163455
LLC-load_miss : 24932
LLC-rfo_access : 84249
LLC-rfo_hit : 16867
LLC-rfo_miss : 67382
LLC-prefetch_access : 918848
LLC-prefetch_hit : 831749
LLC-prefetch_miss : 87099
LLC-writeback_access : 135660
LLC-writeback_hit : 135299
LLC-writeback_miss : 361
LLC-prefetch_requested : 0
LLC-prefetch_issued : 0
LLC-prefetch_useful : 27265
LLC-prefetch_useless : 65782
LLC-Avg_miss_latency : 163.071
LLC-Morteza_fill_l2_prefetches : 706805

Major fault: 0 Minor fault: 5303
CPU 0 L1D next line prefetcher final stats

DRAM Statistics
 CHANNEL 0
 RQ ROW_BUFFER_HIT:      51289  ROW_BUFFER_MISS:     128110
 DBUS_CONGESTED:      96668
 WQ ROW_BUFFER_HIT:      24238  ROW_BUFFER_MISS:      65807  FULL:          0

 AVG_CONGESTED_CYCLE: 6

CPU 0 Branch Prediction Accuracy: 98.6482% MPKI: 3.1551 Average ROB Occupancy at Mispredict: 86.7878

Branch types
NOT_BRANCH: 38329598 76.6592%
BRANCH_DIRECT_JUMP: 510116 1.02023%
BRANCH_INDIRECT: 225730 0.45146%
BRANCH_CONDITIONAL: 8366762 16.7335%
BRANCH_DIRECT_CALL: 600748 1.2015%
BRANCH_INDIRECT_CALL: 682990 1.36598%
BRANCH_RETURN: 1283974 2.56795%
BRANCH_OTHER: 0 0%

