Initialize SIGNATURE TABLE
ST_SET: 1
ST_WAY: 256
ST_TAG_BIT: 16
ST_TAG_MASK: ffff

Initialize PATTERN TABLE
PT_SET: 512
PT_WAY: 4
SIG_DELTA_BIT: 7
C_SIG_BIT: 4
C_DELTA_BIT: 4

Initialize PREFETCH FILTER
FILTER_SET: 1024

*** ChampSim Multicore Out-of-Order Simulator ***

Warmup Instructions: 50000000
Simulation Instructions: 50000000
Number of CPUs: 1
LLC sets: 2048
LLC ways: 16
Off-chip DRAM Size: 4096 MB Channels: 1 Width: 64-bit Data Rate: 3200 MT/s

CPU 0 runs /home/mbaradaran/ChampSim/dpc3_traces/server_009.champsimtrace.xz
CPU 0 L1D next line prefetcher
Heartbeat CPU 0 instructions: 10000003 cycles: 3201831 heartbeat IPC: 3.12321 cumulative IPC: 3.12321 (Simulation time: 0 hr 1 min 24 sec) 
Heartbeat CPU 0 instructions: 20000001 cycles: 6397150 heartbeat IPC: 3.12958 cumulative IPC: 3.12639 (Simulation time: 0 hr 2 min 39 sec) 
Heartbeat CPU 0 instructions: 30000002 cycles: 9606688 heartbeat IPC: 3.11571 cumulative IPC: 3.12282 (Simulation time: 0 hr 3 min 55 sec) 
Heartbeat CPU 0 instructions: 40000003 cycles: 12813375 heartbeat IPC: 3.11848 cumulative IPC: 3.12174 (Simulation time: 0 hr 5 min 13 sec) 
Heartbeat CPU 0 instructions: 50000000 cycles: 16075760 heartbeat IPC: 3.06524 cumulative IPC: 3.11027 (Simulation time: 0 hr 6 min 27 sec) 

Warmup complete CPU 0 instructions: 50000004 cycles: 16075761 (Simulation time: 0 hr 6 min 27 sec) 

Heartbeat CPU 0 instructions: 60000002 cycles: 34138008 heartbeat IPC: 0.553641 cumulative IPC: 0.553641 (Simulation time: 0 hr 8 min 4 sec) 
Heartbeat CPU 0 instructions: 70000003 cycles: 56091000 heartbeat IPC: 0.455519 cumulative IPC: 0.49981 (Simulation time: 0 hr 10 min 3 sec) 
Heartbeat CPU 0 instructions: 80000000 cycles: 66927287 heartbeat IPC: 0.922825 cumulative IPC: 0.589953 (Simulation time: 0 hr 11 min 4 sec) 
Heartbeat CPU 0 instructions: 90000001 cycles: 77887428 heartbeat IPC: 0.912397 cumulative IPC: 0.647127 (Simulation time: 0 hr 12 min 0 sec) 
Heartbeat CPU 0 instructions: 100000003 cycles: 88682744 heartbeat IPC: 0.926328 cumulative IPC: 0.688639 (Simulation time: 0 hr 12 min 59 sec) 
Finished CPU 0 instructions: 50000003 cycles: 72606984 cumulative IPC: 0.688639 (Simulation time: 0 hr 12 min 59 sec) 

ChampSim completed all CPUs

Region of Interest Statistics

CPU 0 cumulative IPC: 0.688639 instructions: 50000003 cycles: 72606984

SHEET
IPC : 0.688639

L1D TOTAL     ACCESS:   22600741  HIT:   18020120  MISS:    4580621
L1D LOAD      ACCESS:    9087580  HIT:    6817785  MISS:    2269795
L1D RFO       ACCESS:    4625571  HIT:    4520694  MISS:     104877
L1D PREFETCH  ACCESS:    8887590  HIT:    6681641  MISS:    2205949
L1D WRITEBACK ACCESS:          0  HIT:          0  MISS:          0
L1D PREFETCH  REQUESTED:    9122887  ISSUED:    9020895  USEFUL:     116859  USELESS:    2089088
L1D AVERAGE MISS LATENCY: 19.9098 cycles
L1D

SHEET
L1D-total_access : 22600741
L1D-total_hit : 18020120
L1D-total_miss : 4580621
L1D-load_access : 9087580
L1D-load_hit : 6817785
L1D-load_miss : 2269795
L1D-rfo_access : 4625571
L1D-rfo_hit : 4520694
L1D-rfo_miss : 104877
L1D-prefetch_access : 8887590
L1D-prefetch_hit : 6681641
L1D-prefetch_miss : 2205949
L1D-writeback_access : 0
L1D-writeback_hit : 0
L1D-writeback_miss : 0
L1D-prefetch_requested : 9122887
L1D-prefetch_issued : 9020895
L1D-prefetch_useful : 116859
L1D-prefetch_useless : 2089088
L1D-Avg_miss_latency : 19.9098
L1D-Morteza_fill_l2_prefetches : 0

L1I TOTAL     ACCESS:   10624734  HIT:    9485670  MISS:    1139064
L1I LOAD      ACCESS:   10624734  HIT:    9485670  MISS:    1139064
L1I RFO       ACCESS:          0  HIT:          0  MISS:          0
L1I PREFETCH  ACCESS:          0  HIT:          0  MISS:          0
L1I WRITEBACK ACCESS:          0  HIT:          0  MISS:          0
L1I PREFETCH  REQUESTED:          0  ISSUED:          0  USEFUL:          0  USELESS:          0
L1I AVERAGE MISS LATENCY: 29.5739 cycles
L1I

SHEET
L1I-total_access : 10624734
L1I-total_hit : 9485670
L1I-total_miss : 1139064
L1I-load_access : 10624734
L1I-load_hit : 9485670
L1I-load_miss : 1139064
L1I-rfo_access : 0
L1I-rfo_hit : 0
L1I-rfo_miss : 0
L1I-prefetch_access : 0
L1I-prefetch_hit : 0
L1I-prefetch_miss : 0
L1I-writeback_access : 0
L1I-writeback_hit : 0
L1I-writeback_miss : 0
L1I-prefetch_requested : 0
L1I-prefetch_issued : 0
L1I-prefetch_useful : 0
L1I-prefetch_useless : 0
L1I-Avg_miss_latency : 29.5739
L1I-Morteza_fill_l2_prefetches : 0

L2C TOTAL     ACCESS:    7837112  HIT:    6867955  MISS:     969157
L2C LOAD      ACCESS:    3392881  HIT:    2735671  MISS:     657210
L2C RFO       ACCESS:     103925  HIT:      65874  MISS:      38051
L2C PREFETCH  ACCESS:    4083431  HIT:    3809950  MISS:     273481
L2C WRITEBACK ACCESS:     256875  HIT:     256460  MISS:        415
L2C PREFETCH  REQUESTED:    7289360  ISSUED:    7288884  USEFUL:      51474  USELESS:     222036
L2C AVERAGE MISS LATENCY: 40.9924 cycles
L2C

SHEET
L2C-total_access : 7837112
L2C-total_hit : 6867955
L2C-total_miss : 969157
L2C-load_access : 3392881
L2C-load_hit : 2735671
L2C-load_miss : 657210
L2C-rfo_access : 103925
L2C-rfo_hit : 65874
L2C-rfo_miss : 38051
L2C-prefetch_access : 4083431
L2C-prefetch_hit : 3809950
L2C-prefetch_miss : 273481
L2C-writeback_access : 256875
L2C-writeback_hit : 256460
L2C-writeback_miss : 415
L2C-prefetch_requested : 7289360
L2C-prefetch_issued : 7288884
L2C-prefetch_useful : 51474
L2C-prefetch_useless : 222036
L2C-Avg_miss_latency : 40.9924
L2C-Morteza_fill_l2_prefetches : 1804817

LLC TOTAL     ACCESS:    2893393  HIT:    2747248  MISS:     146145
LLC LOAD      ACCESS:     633450  HIT:     600412  MISS:      33038
LLC RFO       ACCESS:      38048  HIT:      29347  MISS:       8701
LLC PREFETCH  ACCESS:    2091569  HIT:    1987683  MISS:     103886
LLC WRITEBACK ACCESS:     130326  HIT:     129806  MISS:        520
LLC PREFETCH  REQUESTED:          0  ISSUED:          0  USEFUL:      20055  USELESS:      82837
LLC AVERAGE MISS LATENCY: 161.629 cycles
LLC

SHEET
LLC-total_access : 2893393
LLC-total_hit : 2747248
LLC-total_miss : 146145
LLC-load_access : 633450
LLC-load_hit : 600412
LLC-load_miss : 33038
LLC-rfo_access : 38048
LLC-rfo_hit : 29347
LLC-rfo_miss : 8701
LLC-prefetch_access : 2091569
LLC-prefetch_hit : 1987683
LLC-prefetch_miss : 103886
LLC-writeback_access : 130326
LLC-writeback_hit : 129806
LLC-writeback_miss : 520
LLC-prefetch_requested : 0
LLC-prefetch_issued : 0
LLC-prefetch_useful : 20055
LLC-prefetch_useless : 82837
LLC-Avg_miss_latency : 161.629
LLC-Morteza_fill_l2_prefetches : 1794048

Major fault: 0 Minor fault: 6351
CPU 0 L1D next line prefetcher final stats

DRAM Statistics
 CHANNEL 0
 RQ ROW_BUFFER_HIT:      29346  ROW_BUFFER_MISS:     116276
 DBUS_CONGESTED:      59757
 WQ ROW_BUFFER_HIT:       8406  ROW_BUFFER_MISS:      39951  FULL:          0

 AVG_CONGESTED_CYCLE: 5

CPU 0 Branch Prediction Accuracy: 99.4713% MPKI: 1.11484 Average ROB Occupancy at Mispredict: 71.8717

Branch types
NOT_BRANCH: 39456615 78.9132%
BRANCH_DIRECT_JUMP: 445350 0.8907%
BRANCH_INDIRECT: 131149 0.262298%
BRANCH_CONDITIONAL: 8130196 16.2604%
BRANCH_DIRECT_CALL: 732485 1.46497%
BRANCH_INDIRECT_CALL: 172369 0.344738%
BRANCH_RETURN: 931558 1.86312%
BRANCH_OTHER: 0 0%

