Initialize SIGNATURE TABLE
ST_SET: 1
ST_WAY: 256
ST_TAG_BIT: 16
ST_TAG_MASK: ffff

Initialize PATTERN TABLE
PT_SET: 512
PT_WAY: 4
SIG_DELTA_BIT: 7
C_SIG_BIT: 4
C_DELTA_BIT: 4

Initialize PREFETCH FILTER
FILTER_SET: 1024

*** ChampSim Multicore Out-of-Order Simulator ***

Warmup Instructions: 50000000
Simulation Instructions: 50000000
Number of CPUs: 1
LLC sets: 2048
LLC ways: 16
Off-chip DRAM Size: 4096 MB Channels: 1 Width: 64-bit Data Rate: 3200 MT/s

CPU 0 runs /home/mbaradaran/ChampSim/dpc3_traces/server_002.champsimtrace.xz
CPU 0 L1D next line prefetcher
Heartbeat CPU 0 instructions: 10000000 cycles: 3581249 heartbeat IPC: 2.79232 cumulative IPC: 2.79232 (Simulation time: 0 hr 1 min 13 sec) 
Heartbeat CPU 0 instructions: 20000002 cycles: 7170134 heartbeat IPC: 2.78638 cumulative IPC: 2.78935 (Simulation time: 0 hr 2 min 33 sec) 
Heartbeat CPU 0 instructions: 30000000 cycles: 10710898 heartbeat IPC: 2.82425 cumulative IPC: 2.80089 (Simulation time: 0 hr 3 min 54 sec) 
Heartbeat CPU 0 instructions: 40000000 cycles: 14261143 heartbeat IPC: 2.81671 cumulative IPC: 2.80482 (Simulation time: 0 hr 5 min 15 sec) 
Heartbeat CPU 0 instructions: 50000001 cycles: 17808914 heartbeat IPC: 2.81867 cumulative IPC: 2.80758 (Simulation time: 0 hr 6 min 29 sec) 

Warmup complete CPU 0 instructions: 50000001 cycles: 17808914 (Simulation time: 0 hr 6 min 29 sec) 

Heartbeat CPU 0 instructions: 60000001 cycles: 25966749 heartbeat IPC: 1.22582 cumulative IPC: 1.22582 (Simulation time: 0 hr 7 min 23 sec) 
Heartbeat CPU 0 instructions: 70000003 cycles: 34120405 heartbeat IPC: 1.22644 cumulative IPC: 1.22613 (Simulation time: 0 hr 8 min 14 sec) 
Heartbeat CPU 0 instructions: 80000003 cycles: 42271914 heartbeat IPC: 1.22677 cumulative IPC: 1.22634 (Simulation time: 0 hr 9 min 11 sec) 
Heartbeat CPU 0 instructions: 90000002 cycles: 50430198 heartbeat IPC: 1.22575 cumulative IPC: 1.22619 (Simulation time: 0 hr 10 min 6 sec) 
Heartbeat CPU 0 instructions: 100000003 cycles: 58582147 heartbeat IPC: 1.2267 cumulative IPC: 1.22629 (Simulation time: 0 hr 11 min 1 sec) 
Finished CPU 0 instructions: 50000002 cycles: 40773233 cumulative IPC: 1.22629 (Simulation time: 0 hr 11 min 1 sec) 

ChampSim completed all CPUs

Region of Interest Statistics

CPU 0 cumulative IPC: 1.22629 instructions: 50000002 cycles: 40773233

SHEET
IPC : 1.22629

L1D TOTAL     ACCESS:   23186441  HIT:   23185631  MISS:        810
L1D LOAD      ACCESS:    7411561  HIT:    7411188  MISS:        373
L1D RFO       ACCESS:    8473306  HIT:    8473192  MISS:        114
L1D PREFETCH  ACCESS:    7301574  HIT:    7301251  MISS:        323
L1D WRITEBACK ACCESS:          0  HIT:          0  MISS:          0
L1D PREFETCH  REQUESTED:    7411621  ISSUED:    7317672  USEFUL:         95  USELESS:        230
L1D AVERAGE MISS LATENCY: 29.8358 cycles
L1D

SHEET
L1D-total_access : 23186441
L1D-total_hit : 23185631
L1D-total_miss : 810
L1D-load_access : 7411561
L1D-load_hit : 7411188
L1D-load_miss : 373
L1D-rfo_access : 8473306
L1D-rfo_hit : 8473192
L1D-rfo_miss : 114
L1D-prefetch_access : 7301574
L1D-prefetch_hit : 7301251
L1D-prefetch_miss : 323
L1D-writeback_access : 0
L1D-writeback_hit : 0
L1D-writeback_miss : 0
L1D-prefetch_requested : 7411621
L1D-prefetch_issued : 7317672
L1D-prefetch_useful : 95
L1D-prefetch_useless : 230
L1D-Avg_miss_latency : 29.8358
L1D-Morteza_fill_l2_prefetches : 0

L1I TOTAL     ACCESS:    9685210  HIT:    8063419  MISS:    1621791
L1I LOAD      ACCESS:    9685210  HIT:    8063419  MISS:    1621791
L1I RFO       ACCESS:          0  HIT:          0  MISS:          0
L1I PREFETCH  ACCESS:          0  HIT:          0  MISS:          0
L1I WRITEBACK ACCESS:          0  HIT:          0  MISS:          0
L1I PREFETCH  REQUESTED:          0  ISSUED:          0  USEFUL:          0  USELESS:          0
L1I AVERAGE MISS LATENCY: 14.0585 cycles
L1I

SHEET
L1I-total_access : 9685210
L1I-total_hit : 8063419
L1I-total_miss : 1621791
L1I-load_access : 9685210
L1I-load_hit : 8063419
L1I-load_miss : 1621791
L1I-rfo_access : 0
L1I-rfo_hit : 0
L1I-rfo_miss : 0
L1I-prefetch_access : 0
L1I-prefetch_hit : 0
L1I-prefetch_miss : 0
L1I-writeback_access : 0
L1I-writeback_hit : 0
L1I-writeback_miss : 0
L1I-prefetch_requested : 0
L1I-prefetch_issued : 0
L1I-prefetch_useful : 0
L1I-prefetch_useless : 0
L1I-Avg_miss_latency : 14.0585
L1I-Morteza_fill_l2_prefetches : 0

L2C TOTAL     ACCESS:    2489907  HIT:    2489673  MISS:        234
L2C LOAD      ACCESS:    1622152  HIT:    1622051  MISS:        101
L2C RFO       ACCESS:        113  HIT:        112  MISS:          1
L2C PREFETCH  ACCESS:     867305  HIT:     867174  MISS:        131
L2C WRITEBACK ACCESS:        337  HIT:        336  MISS:          1
L2C PREFETCH  REQUESTED:    1461717  ISSUED:    1461717  USEFUL:         45  USELESS:         83
L2C AVERAGE MISS LATENCY: 84.7906 cycles
L2C

SHEET
L2C-total_access : 2489907
L2C-total_hit : 2489673
L2C-total_miss : 234
L2C-load_access : 1622152
L2C-load_hit : 1622051
L2C-load_miss : 101
L2C-rfo_access : 113
L2C-rfo_hit : 112
L2C-rfo_miss : 1
L2C-prefetch_access : 867305
L2C-prefetch_hit : 867174
L2C-prefetch_miss : 131
L2C-writeback_access : 337
L2C-writeback_hit : 336
L2C-writeback_miss : 1
L2C-prefetch_requested : 1461717
L2C-prefetch_issued : 1461717
L2C-prefetch_useful : 45
L2C-prefetch_useless : 83
L2C-Avg_miss_latency : 84.7906
L2C-Morteza_fill_l2_prefetches : 866928

LLC TOTAL     ACCESS:     306643  HIT:     306230  MISS:        413
LLC LOAD      ACCESS:        101  HIT:         80  MISS:         21
LLC RFO       ACCESS:          1  HIT:          1  MISS:          0
LLC PREFETCH  ACCESS:     306456  HIT:     306068  MISS:        388
LLC WRITEBACK ACCESS:         85  HIT:         81  MISS:          4
LLC PREFETCH  REQUESTED:          0  ISSUED:          0  USEFUL:         14  USELESS:         98
LLC AVERAGE MISS LATENCY: 176.753 cycles
LLC

SHEET
LLC-total_access : 306643
LLC-total_hit : 306230
LLC-total_miss : 413
LLC-load_access : 101
LLC-load_hit : 80
LLC-load_miss : 21
LLC-rfo_access : 1
LLC-rfo_hit : 1
LLC-rfo_miss : 0
LLC-prefetch_access : 306456
LLC-prefetch_hit : 306068
LLC-prefetch_miss : 388
LLC-writeback_access : 85
LLC-writeback_hit : 81
LLC-writeback_miss : 4
LLC-prefetch_requested : 0
LLC-prefetch_issued : 0
LLC-prefetch_useful : 14
LLC-prefetch_useless : 98
LLC-Avg_miss_latency : 176.753
LLC-Morteza_fill_l2_prefetches : 306021

Major fault: 0 Minor fault: 1867
CPU 0 L1D next line prefetcher final stats

DRAM Statistics
 CHANNEL 0
 RQ ROW_BUFFER_HIT:         56  ROW_BUFFER_MISS:        353
 DBUS_CONGESTED:        251
 WQ ROW_BUFFER_HIT:         69  ROW_BUFFER_MISS:        213  FULL:          0

 AVG_CONGESTED_CYCLE: 6

CPU 0 Branch Prediction Accuracy: 99.8789% MPKI: 0.20388 Average ROB Occupancy at Mispredict: 11.6782

Branch types
NOT_BRANCH: 41580658 83.1613%
BRANCH_DIRECT_JUMP: 461627 0.923254%
BRANCH_INDIRECT: 0 0%
BRANCH_CONDITIONAL: 5376429 10.7529%
BRANCH_DIRECT_CALL: 1175774 2.35155%
BRANCH_INDIRECT_CALL: 114840 0.22968%
BRANCH_RETURN: 1290622 2.58124%
BRANCH_OTHER: 0 0%

