Initialize SIGNATURE TABLE
ST_SET: 1
ST_WAY: 256
ST_TAG_BIT: 16
ST_TAG_MASK: ffff

Initialize PATTERN TABLE
PT_SET: 512
PT_WAY: 4
SIG_DELTA_BIT: 7
C_SIG_BIT: 4
C_DELTA_BIT: 4

Initialize PREFETCH FILTER
FILTER_SET: 1024

*** ChampSim Multicore Out-of-Order Simulator ***

Warmup Instructions: 50000000
Simulation Instructions: 50000000
Number of CPUs: 1
LLC sets: 2048
LLC ways: 16
Off-chip DRAM Size: 4096 MB Channels: 1 Width: 64-bit Data Rate: 3200 MT/s

CPU 0 runs /home/mbaradaran/ChampSim/dpc3_traces/server_031.champsimtrace.xz
CPU 0 L1D next line prefetcher
Heartbeat CPU 0 instructions: 10000003 cycles: 3529229 heartbeat IPC: 2.83348 cumulative IPC: 2.83348 (Simulation time: 0 hr 1 min 20 sec) 
Heartbeat CPU 0 instructions: 20000002 cycles: 7057783 heartbeat IPC: 2.83402 cumulative IPC: 2.83375 (Simulation time: 0 hr 2 min 39 sec) 
Heartbeat CPU 0 instructions: 30000002 cycles: 10586403 heartbeat IPC: 2.83397 cumulative IPC: 2.83382 (Simulation time: 0 hr 3 min 56 sec) 
Heartbeat CPU 0 instructions: 40000003 cycles: 14110722 heartbeat IPC: 2.83743 cumulative IPC: 2.83472 (Simulation time: 0 hr 5 min 16 sec) 
Heartbeat CPU 0 instructions: 50000000 cycles: 17637295 heartbeat IPC: 2.83561 cumulative IPC: 2.8349 (Simulation time: 0 hr 6 min 33 sec) 

Warmup complete CPU 0 instructions: 50000004 cycles: 17637296 (Simulation time: 0 hr 6 min 33 sec) 

Heartbeat CPU 0 instructions: 60000000 cycles: 29307784 heartbeat IPC: 0.856862 cumulative IPC: 0.856862 (Simulation time: 0 hr 7 min 30 sec) 
Heartbeat CPU 0 instructions: 70000002 cycles: 41084884 heartbeat IPC: 0.849106 cumulative IPC: 0.852966 (Simulation time: 0 hr 8 min 28 sec) 
*** Reached end of trace for Core: 0 Repeating trace: /home/mbaradaran/ChampSim/dpc3_traces/server_031.champsimtrace.xz
Heartbeat CPU 0 instructions: 80000000 cycles: 52626560 heartbeat IPC: 0.866425 cumulative IPC: 0.857406 (Simulation time: 0 hr 9 min 24 sec) 
Heartbeat CPU 0 instructions: 90000001 cycles: 64254601 heartbeat IPC: 0.85999 cumulative IPC: 0.85805 (Simulation time: 0 hr 10 min 21 sec) 
Heartbeat CPU 0 instructions: 100000000 cycles: 75843980 heartbeat IPC: 0.862859 cumulative IPC: 0.859008 (Simulation time: 0 hr 11 min 20 sec) 
Finished CPU 0 instructions: 50000000 cycles: 58206689 cumulative IPC: 0.859008 (Simulation time: 0 hr 11 min 20 sec) 

ChampSim completed all CPUs

Region of Interest Statistics

CPU 0 cumulative IPC: 0.859008 instructions: 50000000 cycles: 58206689

SHEET
IPC : 0.859008

L1D TOTAL     ACCESS:   22451619  HIT:   20543932  MISS:    1907687
L1D LOAD      ACCESS:    8160815  HIT:    7305215  MISS:     855600
L1D RFO       ACCESS:    6431767  HIT:    6138562  MISS:     293205
L1D PREFETCH  ACCESS:    7859037  HIT:    7100155  MISS:     758882
L1D WRITEBACK ACCESS:          0  HIT:          0  MISS:          0
L1D PREFETCH  REQUESTED:    8223257  ISSUED:    8142417  USEFUL:     190179  USELESS:     568705
L1D AVERAGE MISS LATENCY: 21.772 cycles
L1D

SHEET
L1D-total_access : 22451619
L1D-total_hit : 20543932
L1D-total_miss : 1907687
L1D-load_access : 8160815
L1D-load_hit : 7305215
L1D-load_miss : 855600
L1D-rfo_access : 6431767
L1D-rfo_hit : 6138562
L1D-rfo_miss : 293205
L1D-prefetch_access : 7859037
L1D-prefetch_hit : 7100155
L1D-prefetch_miss : 758882
L1D-writeback_access : 0
L1D-writeback_hit : 0
L1D-writeback_miss : 0
L1D-prefetch_requested : 8223257
L1D-prefetch_issued : 8142417
L1D-prefetch_useful : 190179
L1D-prefetch_useless : 568705
L1D-Avg_miss_latency : 21.772
L1D-Morteza_fill_l2_prefetches : 0

L1I TOTAL     ACCESS:    9473215  HIT:    6321848  MISS:    3151367
L1I LOAD      ACCESS:    9473215  HIT:    6321848  MISS:    3151367
L1I RFO       ACCESS:          0  HIT:          0  MISS:          0
L1I PREFETCH  ACCESS:          0  HIT:          0  MISS:          0
L1I WRITEBACK ACCESS:          0  HIT:          0  MISS:          0
L1I PREFETCH  REQUESTED:          0  ISSUED:          0  USEFUL:          0  USELESS:          0
L1I AVERAGE MISS LATENCY: 17.2236 cycles
L1I

SHEET
L1I-total_access : 9473215
L1I-total_hit : 6321848
L1I-total_miss : 3151367
L1I-load_access : 9473215
L1I-load_hit : 6321848
L1I-load_miss : 3151367
L1I-rfo_access : 0
L1I-rfo_hit : 0
L1I-rfo_miss : 0
L1I-prefetch_access : 0
L1I-prefetch_hit : 0
L1I-prefetch_miss : 0
L1I-writeback_access : 0
L1I-writeback_hit : 0
L1I-writeback_miss : 0
L1I-prefetch_requested : 0
L1I-prefetch_issued : 0
L1I-prefetch_useful : 0
L1I-prefetch_useless : 0
L1I-Avg_miss_latency : 17.2236
L1I-Morteza_fill_l2_prefetches : 0

L2C TOTAL     ACCESS:    8437281  HIT:    7850632  MISS:     586649
L2C LOAD      ACCESS:    3931710  HIT:    3510721  MISS:     420989
L2C RFO       ACCESS:     289937  HIT:     251180  MISS:      38757
L2C PREFETCH  ACCESS:    3598684  HIT:    3472313  MISS:     126371
L2C WRITEBACK ACCESS:     616950  HIT:     616418  MISS:        532
L2C PREFETCH  REQUESTED:    5501833  ISSUED:    5501720  USEFUL:       6678  USELESS:     119569
L2C AVERAGE MISS LATENCY: 42.6823 cycles
L2C

SHEET
L2C-total_access : 8437281
L2C-total_hit : 7850632
L2C-total_miss : 586649
L2C-load_access : 3931710
L2C-load_hit : 3510721
L2C-load_miss : 420989
L2C-rfo_access : 289937
L2C-rfo_hit : 251180
L2C-rfo_miss : 38757
L2C-prefetch_access : 3598684
L2C-prefetch_hit : 3472313
L2C-prefetch_miss : 126371
L2C-writeback_access : 616950
L2C-writeback_hit : 616418
L2C-writeback_miss : 532
L2C-prefetch_requested : 5501833
L2C-prefetch_issued : 5501720
L2C-prefetch_useful : 6678
L2C-prefetch_useless : 119569
L2C-Avg_miss_latency : 42.6823
L2C-Morteza_fill_l2_prefetches : 2778898

LLC TOTAL     ACCESS:    2583130  HIT:    2501472  MISS:      81658
LLC LOAD      ACCESS:     419157  HIT:     398806  MISS:      20351
LLC RFO       ACCESS:      38757  HIT:      34520  MISS:       4237
LLC PREFETCH  ACCESS:    2054693  HIT:    1998209  MISS:      56484
LLC WRITEBACK ACCESS:      70523  HIT:      69937  MISS:        586
LLC PREFETCH  REQUESTED:          0  ISSUED:          0  USEFUL:       3123  USELESS:      52481
LLC AVERAGE MISS LATENCY: 157.659 cycles
LLC

SHEET
LLC-total_access : 2583130
LLC-total_hit : 2501472
LLC-total_miss : 81658
LLC-load_access : 419157
LLC-load_hit : 398806
LLC-load_miss : 20351
LLC-rfo_access : 38757
LLC-rfo_hit : 34520
LLC-rfo_miss : 4237
LLC-prefetch_access : 2054693
LLC-prefetch_hit : 1998209
LLC-prefetch_miss : 56484
LLC-writeback_access : 70523
LLC-writeback_hit : 69937
LLC-writeback_miss : 586
LLC-prefetch_requested : 0
LLC-prefetch_issued : 0
LLC-prefetch_useful : 3123
LLC-prefetch_useless : 52481
LLC-Avg_miss_latency : 157.659
LLC-Morteza_fill_l2_prefetches : 1902686

Major fault: 0 Minor fault: 6041
CPU 0 L1D next line prefetcher final stats

DRAM Statistics
 CHANNEL 0
 RQ ROW_BUFFER_HIT:      23016  ROW_BUFFER_MISS:      58050
 DBUS_CONGESTED:      33138
 WQ ROW_BUFFER_HIT:        804  ROW_BUFFER_MISS:       5315  FULL:          0

 AVG_CONGESTED_CYCLE: 5

CPU 0 Branch Prediction Accuracy: 99.6894% MPKI: 0.58048 Average ROB Occupancy at Mispredict: 97.7437

Branch types
NOT_BRANCH: 40655566 81.3111%
BRANCH_DIRECT_JUMP: 546483 1.09297%
BRANCH_INDIRECT: 172433 0.344866%
BRANCH_CONDITIONAL: 6207568 12.4151%
BRANCH_DIRECT_CALL: 1018498 2.037%
BRANCH_INDIRECT_CALL: 190373 0.380746%
BRANCH_RETURN: 1208855 2.41771%
BRANCH_OTHER: 0 0%

