Initialize SIGNATURE TABLE
ST_SET: 1
ST_WAY: 256
ST_TAG_BIT: 16
ST_TAG_MASK: ffff

Initialize PATTERN TABLE
PT_SET: 512
PT_WAY: 4
SIG_DELTA_BIT: 7
C_SIG_BIT: 4
C_DELTA_BIT: 4

Initialize PREFETCH FILTER
FILTER_SET: 1024

*** ChampSim Multicore Out-of-Order Simulator ***

Warmup Instructions: 50000000
Simulation Instructions: 50000000
Number of CPUs: 1
LLC sets: 2048
LLC ways: 16
Off-chip DRAM Size: 4096 MB Channels: 1 Width: 64-bit Data Rate: 3200 MT/s

CPU 0 runs /home/mbaradaran/ChampSim/dpc3_traces/server_033.champsimtrace.xz
CPU 0 L1D next line prefetcher
Heartbeat CPU 0 instructions: 10000001 cycles: 3349621 heartbeat IPC: 2.98541 cumulative IPC: 2.98541 (Simulation time: 0 hr 1 min 17 sec) 
Heartbeat CPU 0 instructions: 20000003 cycles: 6697892 heartbeat IPC: 2.98662 cumulative IPC: 2.98601 (Simulation time: 0 hr 2 min 34 sec) 
Heartbeat CPU 0 instructions: 30000001 cycles: 10035729 heartbeat IPC: 2.99595 cumulative IPC: 2.98932 (Simulation time: 0 hr 3 min 54 sec) 
Heartbeat CPU 0 instructions: 40000000 cycles: 13382770 heartbeat IPC: 2.98771 cumulative IPC: 2.98892 (Simulation time: 0 hr 5 min 12 sec) 
Heartbeat CPU 0 instructions: 50000000 cycles: 16729063 heartbeat IPC: 2.98838 cumulative IPC: 2.98881 (Simulation time: 0 hr 6 min 27 sec) 

Warmup complete CPU 0 instructions: 50000004 cycles: 16729064 (Simulation time: 0 hr 6 min 27 sec) 

Heartbeat CPU 0 instructions: 60000000 cycles: 26813947 heartbeat IPC: 0.991583 cumulative IPC: 0.991583 (Simulation time: 0 hr 7 min 25 sec) 
Heartbeat CPU 0 instructions: 70000000 cycles: 36832974 heartbeat IPC: 0.998101 cumulative IPC: 0.994831 (Simulation time: 0 hr 8 min 23 sec) 
Heartbeat CPU 0 instructions: 80000000 cycles: 47488207 heartbeat IPC: 0.938506 cumulative IPC: 0.97532 (Simulation time: 0 hr 9 min 28 sec) 
Heartbeat CPU 0 instructions: 90000001 cycles: 57606955 heartbeat IPC: 0.988265 cumulative IPC: 0.978524 (Simulation time: 0 hr 10 min 32 sec) 
Heartbeat CPU 0 instructions: 100000000 cycles: 67687375 heartbeat IPC: 0.992022 cumulative IPC: 0.981194 (Simulation time: 0 hr 11 min 29 sec) 
Finished CPU 0 instructions: 50000000 cycles: 50958318 cumulative IPC: 0.981194 (Simulation time: 0 hr 11 min 29 sec) 

ChampSim completed all CPUs

Region of Interest Statistics

CPU 0 cumulative IPC: 0.981194 instructions: 50000000 cycles: 50958318

SHEET
IPC : 0.981194

L1D TOTAL     ACCESS:   20895855  HIT:   19412225  MISS:    1483630
L1D LOAD      ACCESS:    7421150  HIT:    6747148  MISS:     674002
L1D RFO       ACCESS:    6238193  HIT:    6086400  MISS:     151793
L1D PREFETCH  ACCESS:    7236512  HIT:    6578677  MISS:     657835
L1D WRITEBACK ACCESS:          0  HIT:          0  MISS:          0
L1D PREFETCH  REQUESTED:    7477911  ISSUED:    7378506  USEFUL:     148540  USELESS:     509300
L1D AVERAGE MISS LATENCY: 23.3176 cycles
L1D

SHEET
L1D-total_access : 20895855
L1D-total_hit : 19412225
L1D-total_miss : 1483630
L1D-load_access : 7421150
L1D-load_hit : 6747148
L1D-load_miss : 674002
L1D-rfo_access : 6238193
L1D-rfo_hit : 6086400
L1D-rfo_miss : 151793
L1D-prefetch_access : 7236512
L1D-prefetch_hit : 6578677
L1D-prefetch_miss : 657835
L1D-writeback_access : 0
L1D-writeback_hit : 0
L1D-writeback_miss : 0
L1D-prefetch_requested : 7477911
L1D-prefetch_issued : 7378506
L1D-prefetch_useful : 148540
L1D-prefetch_useless : 509300
L1D-Avg_miss_latency : 23.3176
L1D-Morteza_fill_l2_prefetches : 0

L1I TOTAL     ACCESS:    9638407  HIT:    6249396  MISS:    3389011
L1I LOAD      ACCESS:    9638407  HIT:    6249396  MISS:    3389011
L1I RFO       ACCESS:          0  HIT:          0  MISS:          0
L1I PREFETCH  ACCESS:          0  HIT:          0  MISS:          0
L1I WRITEBACK ACCESS:          0  HIT:          0  MISS:          0
L1I PREFETCH  REQUESTED:          0  ISSUED:          0  USEFUL:          0  USELESS:          0
L1I AVERAGE MISS LATENCY: 14.5494 cycles
L1I

SHEET
L1I-total_access : 9638407
L1I-total_hit : 6249396
L1I-total_miss : 3389011
L1I-load_access : 9638407
L1I-load_hit : 6249396
L1I-load_miss : 3389011
L1I-rfo_access : 0
L1I-rfo_hit : 0
L1I-rfo_miss : 0
L1I-prefetch_access : 0
L1I-prefetch_hit : 0
L1I-prefetch_miss : 0
L1I-writeback_access : 0
L1I-writeback_hit : 0
L1I-writeback_miss : 0
L1I-prefetch_requested : 0
L1I-prefetch_issued : 0
L1I-prefetch_useful : 0
L1I-prefetch_useless : 0
L1I-Avg_miss_latency : 14.5494
L1I-Morteza_fill_l2_prefetches : 0

L2C TOTAL     ACCESS:    8568262  HIT:    8289283  MISS:     278979
L2C LOAD      ACCESS:    4056635  HIT:    3909506  MISS:     147129
L2C RFO       ACCESS:     151337  HIT:     131314  MISS:      20023
L2C PREFETCH  ACCESS:    3993391  HIT:    3882610  MISS:     110781
L2C WRITEBACK ACCESS:     366899  HIT:     365853  MISS:       1046
L2C PREFETCH  REQUESTED:    5827974  ISSUED:    5821975  USEFUL:       9536  USELESS:     101287
L2C AVERAGE MISS LATENCY: 49.2811 cycles
L2C

SHEET
L2C-total_access : 8568262
L2C-total_hit : 8289283
L2C-total_miss : 278979
L2C-load_access : 4056635
L2C-load_hit : 3909506
L2C-load_miss : 147129
L2C-rfo_access : 151337
L2C-rfo_hit : 131314
L2C-rfo_miss : 20023
L2C-prefetch_access : 3993391
L2C-prefetch_hit : 3882610
L2C-prefetch_miss : 110781
L2C-writeback_access : 366899
L2C-writeback_hit : 365853
L2C-writeback_miss : 1046
L2C-prefetch_requested : 5827974
L2C-prefetch_issued : 5821975
L2C-prefetch_useful : 9536
L2C-prefetch_useless : 101287
L2C-Avg_miss_latency : 49.2811
L2C-Morteza_fill_l2_prefetches : 3329097

LLC TOTAL     ACCESS:    1988469  HIT:    1930182  MISS:      58287
LLC LOAD      ACCESS:     147010  HIT:     131249  MISS:      15761
LLC RFO       ACCESS:      20022  HIT:      17025  MISS:       2997
LLC PREFETCH  ACCESS:    1718622  HIT:    1679353  MISS:      39269
LLC WRITEBACK ACCESS:     102815  HIT:     102555  MISS:        260
LLC PREFETCH  REQUESTED:          0  ISSUED:          0  USEFUL:       7285  USELESS:      31655
LLC AVERAGE MISS LATENCY: 166.063 cycles
LLC

SHEET
LLC-total_access : 1988469
LLC-total_hit : 1930182
LLC-total_miss : 58287
LLC-load_access : 147010
LLC-load_hit : 131249
LLC-load_miss : 15761
LLC-rfo_access : 20022
LLC-rfo_hit : 17025
LLC-rfo_miss : 2997
LLC-prefetch_access : 1718622
LLC-prefetch_hit : 1679353
LLC-prefetch_miss : 39269
LLC-writeback_access : 102815
LLC-writeback_hit : 102555
LLC-writeback_miss : 260
LLC-prefetch_requested : 0
LLC-prefetch_issued : 0
LLC-prefetch_useful : 7285
LLC-prefetch_useless : 31655
LLC-Avg_miss_latency : 166.063
LLC-Morteza_fill_l2_prefetches : 1585703

Major fault: 0 Minor fault: 2482
CPU 0 L1D next line prefetcher final stats

DRAM Statistics
 CHANNEL 0
 RQ ROW_BUFFER_HIT:       9467  ROW_BUFFER_MISS:      48553
 DBUS_CONGESTED:      25051
 WQ ROW_BUFFER_HIT:       3570  ROW_BUFFER_MISS:      16287  FULL:          0

 AVG_CONGESTED_CYCLE: 5

CPU 0 Branch Prediction Accuracy: 99.9029% MPKI: 0.19006 Average ROB Occupancy at Mispredict: 112.934

Branch types
NOT_BRANCH: 40217077 80.4342%
BRANCH_DIRECT_JUMP: 774599 1.5492%
BRANCH_INDIRECT: 108806 0.217612%
BRANCH_CONDITIONAL: 6379326 12.7587%
BRANCH_DIRECT_CALL: 1048808 2.09762%
BRANCH_INDIRECT_CALL: 211109 0.422218%
BRANCH_RETURN: 1259924 2.51985%
BRANCH_OTHER: 0 0%

