Initialize SIGNATURE TABLE
ST_SET: 1
ST_WAY: 256
ST_TAG_BIT: 16
ST_TAG_MASK: ffff

Initialize PATTERN TABLE
PT_SET: 512
PT_WAY: 4
SIG_DELTA_BIT: 7
C_SIG_BIT: 4
C_DELTA_BIT: 4

Initialize PREFETCH FILTER
FILTER_SET: 1024

*** ChampSim Multicore Out-of-Order Simulator ***

Warmup Instructions: 50000000
Simulation Instructions: 50000000
Number of CPUs: 1
LLC sets: 2048
LLC ways: 16
Off-chip DRAM Size: 4096 MB Channels: 1 Width: 64-bit Data Rate: 3200 MT/s

CPU 0 runs /home/mbaradaran/ChampSim/dpc3_traces/server_019.champsimtrace.xz
CPU 0 L1D next line prefetcher
Heartbeat CPU 0 instructions: 10000002 cycles: 3628701 heartbeat IPC: 2.75581 cumulative IPC: 2.75581 (Simulation time: 0 hr 1 min 23 sec) 
Heartbeat CPU 0 instructions: 20000003 cycles: 7258631 heartbeat IPC: 2.75487 cumulative IPC: 2.75534 (Simulation time: 0 hr 2 min 48 sec) 
Heartbeat CPU 0 instructions: 30000002 cycles: 10887322 heartbeat IPC: 2.75581 cumulative IPC: 2.7555 (Simulation time: 0 hr 4 min 13 sec) 
Heartbeat CPU 0 instructions: 40000002 cycles: 14527881 heartbeat IPC: 2.74683 cumulative IPC: 2.75333 (Simulation time: 0 hr 5 min 33 sec) 
Heartbeat CPU 0 instructions: 50000001 cycles: 18156932 heartbeat IPC: 2.75554 cumulative IPC: 2.75377 (Simulation time: 0 hr 7 min 6 sec) 

Warmup complete CPU 0 instructions: 50000001 cycles: 18156932 (Simulation time: 0 hr 7 min 6 sec) 

Heartbeat CPU 0 instructions: 60000000 cycles: 39725614 heartbeat IPC: 0.463635 cumulative IPC: 0.463635 (Simulation time: 0 hr 8 min 56 sec) 
Heartbeat CPU 0 instructions: 70000002 cycles: 64206142 heartbeat IPC: 0.408488 cumulative IPC: 0.434318 (Simulation time: 0 hr 10 min 53 sec) 
Heartbeat CPU 0 instructions: 80000002 cycles: 86016953 heartbeat IPC: 0.458488 cumulative IPC: 0.442087 (Simulation time: 0 hr 12 min 38 sec) 
Heartbeat CPU 0 instructions: 90000000 cycles: 105255603 heartbeat IPC: 0.519787 cumulative IPC: 0.459249 (Simulation time: 0 hr 14 min 22 sec) 
Heartbeat CPU 0 instructions: 100000002 cycles: 124475424 heartbeat IPC: 0.520296 cumulative IPC: 0.470285 (Simulation time: 0 hr 16 min 5 sec) 
Finished CPU 0 instructions: 50000001 cycles: 106318492 cumulative IPC: 0.470285 (Simulation time: 0 hr 16 min 5 sec) 

ChampSim completed all CPUs

Region of Interest Statistics

CPU 0 cumulative IPC: 0.470285 instructions: 50000001 cycles: 106318492

SHEET
IPC : 0.470285

L1D TOTAL     ACCESS:   19414754  HIT:   17191477  MISS:    2223277
L1D LOAD      ACCESS:    7506053  HIT:    6757302  MISS:     748751
L1D RFO       ACCESS:    5538664  HIT:    4636541  MISS:     902123
L1D PREFETCH  ACCESS:    6370037  HIT:    5797634  MISS:     572403
L1D WRITEBACK ACCESS:          0  HIT:          0  MISS:          0
L1D PREFETCH  REQUESTED:    7550491  ISSUED:    7381235  USEFUL:     203271  USELESS:     369041
L1D AVERAGE MISS LATENCY: 181.137 cycles
L1D

SHEET
L1D-total_access : 19414754
L1D-total_hit : 17191477
L1D-total_miss : 2223277
L1D-load_access : 7506053
L1D-load_hit : 6757302
L1D-load_miss : 748751
L1D-rfo_access : 5538664
L1D-rfo_hit : 4636541
L1D-rfo_miss : 902123
L1D-prefetch_access : 6370037
L1D-prefetch_hit : 5797634
L1D-prefetch_miss : 572403
L1D-writeback_access : 0
L1D-writeback_hit : 0
L1D-writeback_miss : 0
L1D-prefetch_requested : 7550491
L1D-prefetch_issued : 7381235
L1D-prefetch_useful : 203271
L1D-prefetch_useless : 369041
L1D-Avg_miss_latency : 181.137
L1D-Morteza_fill_l2_prefetches : 0

L1I TOTAL     ACCESS:    9754157  HIT:    7664070  MISS:    2090087
L1I LOAD      ACCESS:    9754157  HIT:    7664070  MISS:    2090087
L1I RFO       ACCESS:          0  HIT:          0  MISS:          0
L1I PREFETCH  ACCESS:          0  HIT:          0  MISS:          0
L1I WRITEBACK ACCESS:          0  HIT:          0  MISS:          0
L1I PREFETCH  REQUESTED:          0  ISSUED:          0  USEFUL:          0  USELESS:          0
L1I AVERAGE MISS LATENCY: 18.2172 cycles
L1I

SHEET
L1I-total_access : 9754157
L1I-total_hit : 7664070
L1I-total_miss : 2090087
L1I-load_access : 9754157
L1I-load_hit : 7664070
L1I-load_miss : 2090087
L1I-rfo_access : 0
L1I-rfo_hit : 0
L1I-rfo_miss : 0
L1I-prefetch_access : 0
L1I-prefetch_hit : 0
L1I-prefetch_miss : 0
L1I-writeback_access : 0
L1I-writeback_hit : 0
L1I-writeback_miss : 0
L1I-prefetch_requested : 0
L1I-prefetch_issued : 0
L1I-prefetch_useful : 0
L1I-prefetch_useless : 0
L1I-Avg_miss_latency : 18.2172
L1I-Morteza_fill_l2_prefetches : 0

L2C TOTAL     ACCESS:    7396538  HIT:    5511609  MISS:    1884929
L2C LOAD      ACCESS:    2643405  HIT:    2197793  MISS:     445612
L2C RFO       ACCESS:     901655  HIT:      18384  MISS:     883271
L2C PREFETCH  ACCESS:    2676686  HIT:    2122848  MISS:     553838
L2C WRITEBACK ACCESS:    1174792  HIT:    1172584  MISS:       2208
L2C PREFETCH  REQUESTED:    3926868  ISSUED:    3923639  USEFUL:      21988  USELESS:     531187
L2C AVERAGE MISS LATENCY: 214.249 cycles
L2C

SHEET
L2C-total_access : 7396538
L2C-total_hit : 5511609
L2C-total_miss : 1884929
L2C-load_access : 2643405
L2C-load_hit : 2197793
L2C-load_miss : 445612
L2C-rfo_access : 901655
L2C-rfo_hit : 18384
L2C-rfo_miss : 883271
L2C-prefetch_access : 2676686
L2C-prefetch_hit : 2122848
L2C-prefetch_miss : 553838
L2C-writeback_access : 1174792
L2C-writeback_hit : 1172584
L2C-writeback_miss : 2208
L2C-prefetch_requested : 3926868
L2C-prefetch_issued : 3923639
L2C-prefetch_useful : 21988
L2C-prefetch_useless : 531187
L2C-Avg_miss_latency : 214.249
L2C-Morteza_fill_l2_prefetches : 1896189

LLC TOTAL     ACCESS:    4236229  HIT:    2573533  MISS:    1662696
LLC LOAD      ACCESS:     445294  HIT:     263359  MISS:     181935
LLC RFO       ACCESS:     883268  HIT:     115343  MISS:     767925
LLC PREFETCH  ACCESS:    1797545  HIT:    1087484  MISS:     710061
LLC WRITEBACK ACCESS:    1110122  HIT:    1107347  MISS:       2775
LLC PREFETCH  REQUESTED:          0  ISSUED:          0  USEFUL:      61184  USELESS:     648130
LLC AVERAGE MISS LATENCY: 264.567 cycles
LLC

SHEET
LLC-total_access : 4236229
LLC-total_hit : 2573533
LLC-total_miss : 1662696
LLC-load_access : 445294
LLC-load_hit : 263359
LLC-load_miss : 181935
LLC-rfo_access : 883268
LLC-rfo_hit : 115343
LLC-rfo_miss : 767925
LLC-prefetch_access : 1797545
LLC-prefetch_hit : 1087484
LLC-prefetch_miss : 710061
LLC-writeback_access : 1110122
LLC-writeback_hit : 1107347
LLC-writeback_miss : 2775
LLC-prefetch_requested : 0
LLC-prefetch_issued : 0
LLC-prefetch_useful : 61184
LLC-prefetch_useless : 648130
LLC-Avg_miss_latency : 264.567
LLC-Morteza_fill_l2_prefetches : 863725

Major fault: 0 Minor fault: 25691
CPU 0 L1D next line prefetcher final stats

DRAM Statistics
 CHANNEL 0
 RQ ROW_BUFFER_HIT:     398800  ROW_BUFFER_MISS:    1260947
 DBUS_CONGESTED:    1633149
 WQ ROW_BUFFER_HIT:     253692  ROW_BUFFER_MISS:     681989  FULL:          0

 AVG_CONGESTED_CYCLE: 6

CPU 0 Branch Prediction Accuracy: 99.2186% MPKI: 1.3219 Average ROB Occupancy at Mispredict: 166.389

Branch types
NOT_BRANCH: 41540766 83.0815%
BRANCH_DIRECT_JUMP: 462382 0.924764%
BRANCH_INDIRECT: 45460 0.09092%
BRANCH_CONDITIONAL: 6209273 12.4185%
BRANCH_DIRECT_CALL: 666240 1.33248%
BRANCH_INDIRECT_CALL: 204728 0.409456%
BRANCH_RETURN: 870977 1.74195%
BRANCH_OTHER: 0 0%

