Initialize SIGNATURE TABLE
ST_SET: 1
ST_WAY: 256
ST_TAG_BIT: 16
ST_TAG_MASK: ffff

Initialize PATTERN TABLE
PT_SET: 512
PT_WAY: 4
SIG_DELTA_BIT: 7
C_SIG_BIT: 4
C_DELTA_BIT: 4

Initialize PREFETCH FILTER
FILTER_SET: 1024

*** ChampSim Multicore Out-of-Order Simulator ***

Warmup Instructions: 50000000
Simulation Instructions: 50000000
Number of CPUs: 1
LLC sets: 2048
LLC ways: 16
Off-chip DRAM Size: 4096 MB Channels: 1 Width: 64-bit Data Rate: 3200 MT/s

CPU 0 runs /home/mbaradaran/ChampSim/dpc3_traces/server_026.champsimtrace.xz
CPU 0 L1D next line prefetcher
Heartbeat CPU 0 instructions: 10000000 cycles: 3534472 heartbeat IPC: 2.82928 cumulative IPC: 2.82928 (Simulation time: 0 hr 1 min 24 sec) 
Heartbeat CPU 0 instructions: 20000002 cycles: 7075053 heartbeat IPC: 2.8244 cumulative IPC: 2.82683 (Simulation time: 0 hr 2 min 46 sec) 
Heartbeat CPU 0 instructions: 30000000 cycles: 10604475 heartbeat IPC: 2.83332 cumulative IPC: 2.82899 (Simulation time: 0 hr 4 min 7 sec) 
Heartbeat CPU 0 instructions: 40000003 cycles: 14143838 heartbeat IPC: 2.82537 cumulative IPC: 2.82809 (Simulation time: 0 hr 5 min 33 sec) 
Heartbeat CPU 0 instructions: 50000000 cycles: 17675711 heartbeat IPC: 2.83136 cumulative IPC: 2.82874 (Simulation time: 0 hr 6 min 52 sec) 

Warmup complete CPU 0 instructions: 50000004 cycles: 17675712 (Simulation time: 0 hr 6 min 52 sec) 

*** Reached end of trace for Core: 0 Repeating trace: /home/mbaradaran/ChampSim/dpc3_traces/server_026.champsimtrace.xz
Heartbeat CPU 0 instructions: 60000000 cycles: 28641374 heartbeat IPC: 0.911938 cumulative IPC: 0.911937 (Simulation time: 0 hr 7 min 51 sec) 
Heartbeat CPU 0 instructions: 70000003 cycles: 39438276 heartbeat IPC: 0.926192 cumulative IPC: 0.919009 (Simulation time: 0 hr 8 min 55 sec) 
Heartbeat CPU 0 instructions: 80000003 cycles: 50393732 heartbeat IPC: 0.912787 cumulative IPC: 0.916926 (Simulation time: 0 hr 9 min 58 sec) 
Heartbeat CPU 0 instructions: 90000002 cycles: 61215318 heartbeat IPC: 0.924079 cumulative IPC: 0.918704 (Simulation time: 0 hr 10 min 53 sec) 
Heartbeat CPU 0 instructions: 100000000 cycles: 72146220 heartbeat IPC: 0.914837 cumulative IPC: 0.917928 (Simulation time: 0 hr 11 min 52 sec) 
Finished CPU 0 instructions: 50000000 cycles: 54470509 cumulative IPC: 0.917928 (Simulation time: 0 hr 11 min 52 sec) 

ChampSim completed all CPUs

Region of Interest Statistics

CPU 0 cumulative IPC: 0.917928 instructions: 50000000 cycles: 54470509

SHEET
IPC : 0.917928

L1D TOTAL     ACCESS:   22474936  HIT:   20827657  MISS:    1647279
L1D LOAD      ACCESS:    8231682  HIT:    7515372  MISS:     716310
L1D RFO       ACCESS:    6329717  HIT:    6042079  MISS:     287638
L1D PREFETCH  ACCESS:    7913537  HIT:    7270206  MISS:     643331
L1D WRITEBACK ACCESS:          0  HIT:          0  MISS:          0
L1D PREFETCH  REQUESTED:    8281603  ISSUED:    8151120  USEFUL:     164038  USELESS:     479305
L1D AVERAGE MISS LATENCY: 22.9908 cycles
L1D

SHEET
L1D-total_access : 22474936
L1D-total_hit : 20827657
L1D-total_miss : 1647279
L1D-load_access : 8231682
L1D-load_hit : 7515372
L1D-load_miss : 716310
L1D-rfo_access : 6329717
L1D-rfo_hit : 6042079
L1D-rfo_miss : 287638
L1D-prefetch_access : 7913537
L1D-prefetch_hit : 7270206
L1D-prefetch_miss : 643331
L1D-writeback_access : 0
L1D-writeback_hit : 0
L1D-writeback_miss : 0
L1D-prefetch_requested : 8281603
L1D-prefetch_issued : 8151120
L1D-prefetch_useful : 164038
L1D-prefetch_useless : 479305
L1D-Avg_miss_latency : 22.9908
L1D-Morteza_fill_l2_prefetches : 0

L1I TOTAL     ACCESS:    9286981  HIT:    6459087  MISS:    2827894
L1I LOAD      ACCESS:    9286981  HIT:    6459087  MISS:    2827894
L1I RFO       ACCESS:          0  HIT:          0  MISS:          0
L1I PREFETCH  ACCESS:          0  HIT:          0  MISS:          0
L1I WRITEBACK ACCESS:          0  HIT:          0  MISS:          0
L1I PREFETCH  REQUESTED:          0  ISSUED:          0  USEFUL:          0  USELESS:          0
L1I AVERAGE MISS LATENCY: 18.3544 cycles
L1I

SHEET
L1I-total_access : 9286981
L1I-total_hit : 6459087
L1I-total_miss : 2827894
L1I-load_access : 9286981
L1I-load_hit : 6459087
L1I-load_miss : 2827894
L1I-rfo_access : 0
L1I-rfo_hit : 0
L1I-rfo_miss : 0
L1I-prefetch_access : 0
L1I-prefetch_hit : 0
L1I-prefetch_miss : 0
L1I-writeback_access : 0
L1I-writeback_hit : 0
L1I-writeback_miss : 0
L1I-prefetch_requested : 0
L1I-prefetch_issued : 0
L1I-prefetch_useful : 0
L1I-prefetch_useless : 0
L1I-Avg_miss_latency : 18.3544
L1I-Morteza_fill_l2_prefetches : 0

L2C TOTAL     ACCESS:    7448508  HIT:    6692021  MISS:     756487
L2C LOAD      ACCESS:    3478342  HIT:    2961147  MISS:     517195
L2C RFO       ACCESS:     284863  HIT:     192140  MISS:      92723
L2C PREFETCH  ACCESS:    3124123  HIT:    2980449  MISS:     143674
L2C WRITEBACK ACCESS:     561180  HIT:     558285  MISS:       2895
L2C PREFETCH  REQUESTED:    4761171  ISSUED:    4760713  USEFUL:      12300  USELESS:     131304
L2C AVERAGE MISS LATENCY: 36.2642 cycles
L2C

SHEET
L2C-total_access : 7448508
L2C-total_hit : 6692021
L2C-total_miss : 756487
L2C-load_access : 3478342
L2C-load_hit : 2961147
L2C-load_miss : 517195
L2C-rfo_access : 284863
L2C-rfo_hit : 192140
L2C-rfo_miss : 92723
L2C-prefetch_access : 3124123
L2C-prefetch_hit : 2980449
L2C-prefetch_miss : 143674
L2C-writeback_access : 561180
L2C-writeback_hit : 558285
L2C-writeback_miss : 2895
L2C-prefetch_requested : 4761171
L2C-prefetch_issued : 4760713
L2C-prefetch_useful : 12300
L2C-prefetch_useless : 131304
L2C-Avg_miss_latency : 36.2642
L2C-Morteza_fill_l2_prefetches : 2429138

LLC TOTAL     ACCESS:    2392667  HIT:    2358553  MISS:      34114
LLC LOAD      ACCESS:     516885  HIT:     512183  MISS:       4702
LLC RFO       ACCESS:      92718  HIT:      78378  MISS:      14340
LLC PREFETCH  ACCESS:    1628046  HIT:    1613187  MISS:      14859
LLC WRITEBACK ACCESS:     155018  HIT:     154805  MISS:        213
LLC PREFETCH  REQUESTED:          0  ISSUED:          0  USEFUL:       1461  USELESS:      14229
LLC AVERAGE MISS LATENCY: 183.817 cycles
LLC

SHEET
LLC-total_access : 2392667
LLC-total_hit : 2358553
LLC-total_miss : 34114
LLC-load_access : 516885
LLC-load_hit : 512183
LLC-load_miss : 4702
LLC-rfo_access : 92718
LLC-rfo_hit : 78378
LLC-rfo_miss : 14340
LLC-prefetch_access : 1628046
LLC-prefetch_hit : 1613187
LLC-prefetch_miss : 14859
LLC-writeback_access : 155018
LLC-writeback_hit : 154805
LLC-writeback_miss : 213
LLC-prefetch_requested : 0
LLC-prefetch_issued : 0
LLC-prefetch_useful : 1461
LLC-prefetch_useless : 14229
LLC-Avg_miss_latency : 183.817
LLC-Morteza_fill_l2_prefetches : 1485667

Major fault: 0 Minor fault: 2165
CPU 0 L1D next line prefetcher final stats

DRAM Statistics
 CHANNEL 0
 RQ ROW_BUFFER_HIT:      12427  ROW_BUFFER_MISS:      21473
 DBUS_CONGESTED:      23031
 WQ ROW_BUFFER_HIT:       1512  ROW_BUFFER_MISS:      14011  FULL:          0

 AVG_CONGESTED_CYCLE: 6

CPU 0 Branch Prediction Accuracy: 99.822% MPKI: 0.32584 Average ROB Occupancy at Mispredict: 80.4954

Branch types
NOT_BRANCH: 40848530 81.6971%
BRANCH_DIRECT_JUMP: 522045 1.04409%
BRANCH_INDIRECT: 204034 0.408068%
BRANCH_CONDITIONAL: 6212952 12.4259%
BRANCH_DIRECT_CALL: 932389 1.86478%
BRANCH_INDIRECT_CALL: 173764 0.347528%
BRANCH_RETURN: 1106149 2.2123%
BRANCH_OTHER: 0 0%

