Initialize SIGNATURE TABLE
ST_SET: 1
ST_WAY: 256
ST_TAG_BIT: 16
ST_TAG_MASK: ffff

Initialize PATTERN TABLE
PT_SET: 512
PT_WAY: 4
SIG_DELTA_BIT: 7
C_SIG_BIT: 4
C_DELTA_BIT: 4

Initialize PREFETCH FILTER
FILTER_SET: 1024

*** ChampSim Multicore Out-of-Order Simulator ***

Warmup Instructions: 50000000
Simulation Instructions: 50000000
Number of CPUs: 1
LLC sets: 2048
LLC ways: 16
Off-chip DRAM Size: 4096 MB Channels: 1 Width: 64-bit Data Rate: 3200 MT/s

CPU 0 runs /home/mbaradaran/ChampSim/dpc3_traces/server_001.champsimtrace.xz
CPU 0 L1D next line prefetcher
Heartbeat CPU 0 instructions: 10000002 cycles: 3155673 heartbeat IPC: 3.1689 cumulative IPC: 3.1689 (Simulation time: 0 hr 1 min 8 sec) 
Heartbeat CPU 0 instructions: 20000000 cycles: 6371279 heartbeat IPC: 3.10983 cumulative IPC: 3.13909 (Simulation time: 0 hr 2 min 19 sec) 
Heartbeat CPU 0 instructions: 30000003 cycles: 9558343 heartbeat IPC: 3.13769 cumulative IPC: 3.13862 (Simulation time: 0 hr 3 min 28 sec) 
Heartbeat CPU 0 instructions: 40000002 cycles: 12766546 heartbeat IPC: 3.11701 cumulative IPC: 3.13319 (Simulation time: 0 hr 4 min 39 sec) 
Heartbeat CPU 0 instructions: 50000003 cycles: 15986288 heartbeat IPC: 3.10584 cumulative IPC: 3.12768 (Simulation time: 0 hr 5 min 58 sec) 

Warmup complete CPU 0 instructions: 50000003 cycles: 15986288 (Simulation time: 0 hr 5 min 58 sec) 

Heartbeat CPU 0 instructions: 60000000 cycles: 24722435 heartbeat IPC: 1.14467 cumulative IPC: 1.14467 (Simulation time: 0 hr 7 min 1 sec) 
Heartbeat CPU 0 instructions: 70000001 cycles: 32775939 heartbeat IPC: 1.2417 cumulative IPC: 1.19121 (Simulation time: 0 hr 8 min 5 sec) 
Heartbeat CPU 0 instructions: 80000002 cycles: 41036848 heartbeat IPC: 1.21052 cumulative IPC: 1.19758 (Simulation time: 0 hr 9 min 5 sec) 
Heartbeat CPU 0 instructions: 90000002 cycles: 49662453 heartbeat IPC: 1.15934 cumulative IPC: 1.18778 (Simulation time: 0 hr 10 min 4 sec) 
Heartbeat CPU 0 instructions: 100000003 cycles: 57777690 heartbeat IPC: 1.23225 cumulative IPC: 1.19642 (Simulation time: 0 hr 11 min 0 sec) 
Finished CPU 0 instructions: 50000000 cycles: 41791402 cumulative IPC: 1.19642 (Simulation time: 0 hr 11 min 0 sec) 

ChampSim completed all CPUs

Region of Interest Statistics

CPU 0 cumulative IPC: 1.19642 instructions: 50000000 cycles: 41791402

SHEET
IPC : 1.19642

L1D TOTAL     ACCESS:   18233555  HIT:   17722184  MISS:     511371
L1D LOAD      ACCESS:    6742974  HIT:    6543148  MISS:     199826
L1D RFO       ACCESS:    5075722  HIT:    4992978  MISS:      82744
L1D PREFETCH  ACCESS:    6414859  HIT:    6186058  MISS:     228801
L1D WRITEBACK ACCESS:          0  HIT:          0  MISS:          0
L1D PREFETCH  REQUESTED:    6772003  ISSUED:    6584572  USEFUL:     136877  USELESS:      92052
L1D AVERAGE MISS LATENCY: 90.9583 cycles
L1D

SHEET
L1D-total_access : 18233555
L1D-total_hit : 17722184
L1D-total_miss : 511371
L1D-load_access : 6742974
L1D-load_hit : 6543148
L1D-load_miss : 199826
L1D-rfo_access : 5075722
L1D-rfo_hit : 4992978
L1D-rfo_miss : 82744
L1D-prefetch_access : 6414859
L1D-prefetch_hit : 6186058
L1D-prefetch_miss : 228801
L1D-writeback_access : 0
L1D-writeback_hit : 0
L1D-writeback_miss : 0
L1D-prefetch_requested : 6772003
L1D-prefetch_issued : 6584572
L1D-prefetch_useful : 136877
L1D-prefetch_useless : 92052
L1D-Avg_miss_latency : 90.9583
L1D-Morteza_fill_l2_prefetches : 0

L1I TOTAL     ACCESS:    8189584  HIT:    7531143  MISS:     658441
L1I LOAD      ACCESS:    8189584  HIT:    7531143  MISS:     658441
L1I RFO       ACCESS:          0  HIT:          0  MISS:          0
L1I PREFETCH  ACCESS:          0  HIT:          0  MISS:          0
L1I WRITEBACK ACCESS:          0  HIT:          0  MISS:          0
L1I PREFETCH  REQUESTED:          0  ISSUED:          0  USEFUL:          0  USELESS:          0
L1I AVERAGE MISS LATENCY: 27.6131 cycles
L1I

SHEET
L1I-total_access : 8189584
L1I-total_hit : 7531143
L1I-total_miss : 658441
L1I-load_access : 8189584
L1I-load_hit : 7531143
L1I-load_miss : 658441
L1I-rfo_access : 0
L1I-rfo_hit : 0
L1I-rfo_miss : 0
L1I-prefetch_access : 0
L1I-prefetch_hit : 0
L1I-prefetch_miss : 0
L1I-writeback_access : 0
L1I-writeback_hit : 0
L1I-writeback_miss : 0
L1I-prefetch_requested : 0
L1I-prefetch_issued : 0
L1I-prefetch_useful : 0
L1I-prefetch_useless : 0
L1I-Avg_miss_latency : 27.6131
L1I-Morteza_fill_l2_prefetches : 0

L2C TOTAL     ACCESS:    2169690  HIT:    1708504  MISS:     461186
L2C LOAD      ACCESS:     821348  HIT:     608696  MISS:     212652
L2C RFO       ACCESS:      81049  HIT:      10498  MISS:      70551
L2C PREFETCH  ACCESS:    1059435  HIT:     881860  MISS:     177575
L2C WRITEBACK ACCESS:     207858  HIT:     207450  MISS:        408
L2C PREFETCH  REQUESTED:    1883657  ISSUED:    1883138  USEFUL:      25153  USELESS:     150569
L2C AVERAGE MISS LATENCY: 108.103 cycles
L2C

SHEET
L2C-total_access : 2169690
L2C-total_hit : 1708504
L2C-total_miss : 461186
L2C-load_access : 821348
L2C-load_hit : 608696
L2C-load_miss : 212652
L2C-rfo_access : 81049
L2C-rfo_hit : 10498
L2C-rfo_miss : 70551
L2C-prefetch_access : 1059435
L2C-prefetch_hit : 881860
L2C-prefetch_miss : 177575
L2C-writeback_access : 207858
L2C-writeback_hit : 207450
L2C-writeback_miss : 408
L2C-prefetch_requested : 1883657
L2C-prefetch_issued : 1883138
L2C-prefetch_useful : 25153
L2C-prefetch_useless : 150569
L2C-Avg_miss_latency : 108.103
L2C-Morteza_fill_l2_prefetches : 768445

LLC TOTAL     ACCESS:    1271439  HIT:     938875  MISS:     332564
LLC LOAD      ACCESS:     207472  HIT:     154640  MISS:      52832
LLC RFO       ACCESS:      70548  HIT:       6787  MISS:      63761
LLC PREFETCH  ACCESS:     826149  HIT:     610548  MISS:     215601
LLC WRITEBACK ACCESS:     167270  HIT:     166900  MISS:        370
LLC PREFETCH  REQUESTED:          0  ISSUED:          0  USEFUL:      44009  USELESS:     168736
LLC AVERAGE MISS LATENCY: 200.108 cycles
LLC

SHEET
LLC-total_access : 1271439
LLC-total_hit : 938875
LLC-total_miss : 332564
LLC-load_access : 207472
LLC-load_hit : 154640
LLC-load_miss : 52832
LLC-rfo_access : 70548
LLC-rfo_hit : 6787
LLC-rfo_miss : 63761
LLC-prefetch_access : 826149
LLC-prefetch_hit : 610548
LLC-prefetch_miss : 215601
LLC-writeback_access : 167270
LLC-writeback_hit : 166900
LLC-writeback_miss : 370
LLC-prefetch_requested : 0
LLC-prefetch_issued : 0
LLC-prefetch_useful : 44009
LLC-prefetch_useless : 168736
LLC-Avg_miss_latency : 200.108
LLC-Morteza_fill_l2_prefetches : 505275

Major fault: 0 Minor fault: 16697
CPU 0 L1D next line prefetcher final stats

DRAM Statistics
 CHANNEL 0
 RQ ROW_BUFFER_HIT:      94433  ROW_BUFFER_MISS:     237746
 DBUS_CONGESTED:     218740
 WQ ROW_BUFFER_HIT:      37691  ROW_BUFFER_MISS:     121568  FULL:          0

 AVG_CONGESTED_CYCLE: 6

CPU 0 Branch Prediction Accuracy: 99.5889% MPKI: 0.70108 Average ROB Occupancy at Mispredict: 77.1174

Branch types
NOT_BRANCH: 41473570 82.9471%
BRANCH_DIRECT_JUMP: 347941 0.695882%
BRANCH_INDIRECT: 148212 0.296424%
BRANCH_CONDITIONAL: 6817274 13.6345%
BRANCH_DIRECT_CALL: 570724 1.14145%
BRANCH_INDIRECT_CALL: 25133 0.050266%
BRANCH_RETURN: 617123 1.23425%
BRANCH_OTHER: 0 0%

