Initialize SIGNATURE TABLE
ST_SET: 1
ST_WAY: 256
ST_TAG_BIT: 16
ST_TAG_MASK: ffff

Initialize PATTERN TABLE
PT_SET: 512
PT_WAY: 4
SIG_DELTA_BIT: 7
C_SIG_BIT: 4
C_DELTA_BIT: 4

Initialize PREFETCH FILTER
FILTER_SET: 1024

*** ChampSim Multicore Out-of-Order Simulator ***

Warmup Instructions: 50000000
Simulation Instructions: 50000000
Number of CPUs: 1
LLC sets: 2048
LLC ways: 16
Off-chip DRAM Size: 4096 MB Channels: 1 Width: 64-bit Data Rate: 3200 MT/s

CPU 0 runs /home/mbaradaran/ChampSim/dpc3_traces/spec_gcc_003.champsimtrace.xz
CPU 0 L1D next line prefetcher
Heartbeat CPU 0 instructions: 10000001 cycles: 3489950 heartbeat IPC: 2.86537 cumulative IPC: 2.86537 (Simulation time: 0 hr 1 min 14 sec) 
Heartbeat CPU 0 instructions: 20000000 cycles: 6967785 heartbeat IPC: 2.87535 cumulative IPC: 2.87035 (Simulation time: 0 hr 2 min 22 sec) 
Heartbeat CPU 0 instructions: 30000002 cycles: 10411645 heartbeat IPC: 2.90372 cumulative IPC: 2.88139 (Simulation time: 0 hr 3 min 40 sec) 
Heartbeat CPU 0 instructions: 40000000 cycles: 13880152 heartbeat IPC: 2.88308 cumulative IPC: 2.88181 (Simulation time: 0 hr 4 min 51 sec) 
Heartbeat CPU 0 instructions: 50000001 cycles: 17189320 heartbeat IPC: 3.02191 cumulative IPC: 2.90878 (Simulation time: 0 hr 5 min 49 sec) 

Warmup complete CPU 0 instructions: 50000001 cycles: 17189320 (Simulation time: 0 hr 5 min 49 sec) 

Heartbeat CPU 0 instructions: 60000000 cycles: 59539331 heartbeat IPC: 0.236127 cumulative IPC: 0.236127 (Simulation time: 0 hr 8 min 24 sec) 
Heartbeat CPU 0 instructions: 70000000 cycles: 105063587 heartbeat IPC: 0.219663 cumulative IPC: 0.227598 (Simulation time: 0 hr 10 min 59 sec) 
Heartbeat CPU 0 instructions: 80000002 cycles: 151255309 heartbeat IPC: 0.216489 cumulative IPC: 0.22377 (Simulation time: 0 hr 13 min 35 sec) 
Heartbeat CPU 0 instructions: 90000002 cycles: 190420153 heartbeat IPC: 0.255331 cumulative IPC: 0.230906 (Simulation time: 0 hr 15 min 51 sec) 
Heartbeat CPU 0 instructions: 100000000 cycles: 239001022 heartbeat IPC: 0.205842 cumulative IPC: 0.225416 (Simulation time: 0 hr 18 min 26 sec) 
Finished CPU 0 instructions: 50000000 cycles: 221811703 cumulative IPC: 0.225416 (Simulation time: 0 hr 18 min 26 sec) 

ChampSim completed all CPUs

Region of Interest Statistics

CPU 0 cumulative IPC: 0.225416 instructions: 50000000 cycles: 221811703

SHEET
IPC : 0.225416

L1D TOTAL     ACCESS:   17619490  HIT:   11894719  MISS:    5724771
L1D LOAD      ACCESS:    4920798  HIT:    4539689  MISS:     381109
L1D RFO       ACCESS:    8260565  HIT:    3208409  MISS:    5052156
L1D PREFETCH  ACCESS:    4438127  HIT:    4146621  MISS:     291506
L1D WRITEBACK ACCESS:          0  HIT:          0  MISS:          0
L1D PREFETCH  REQUESTED:    4939620  ISSUED:    4882686  USEFUL:     153801  USELESS:     137885
L1D AVERAGE MISS LATENCY: 493.454 cycles
L1D

SHEET
L1D-total_access : 17619490
L1D-total_hit : 11894719
L1D-total_miss : 5724771
L1D-load_access : 4920798
L1D-load_hit : 4539689
L1D-load_miss : 381109
L1D-rfo_access : 8260565
L1D-rfo_hit : 3208409
L1D-rfo_miss : 5052156
L1D-prefetch_access : 4438127
L1D-prefetch_hit : 4146621
L1D-prefetch_miss : 291506
L1D-writeback_access : 0
L1D-writeback_hit : 0
L1D-writeback_miss : 0
L1D-prefetch_requested : 4939620
L1D-prefetch_issued : 4882686
L1D-prefetch_useful : 153801
L1D-prefetch_useless : 137885
L1D-Avg_miss_latency : 493.454
L1D-Morteza_fill_l2_prefetches : 0

L1I TOTAL     ACCESS:   11304889  HIT:   10546398  MISS:     758491
L1I LOAD      ACCESS:   11304889  HIT:   10546398  MISS:     758491
L1I RFO       ACCESS:          0  HIT:          0  MISS:          0
L1I PREFETCH  ACCESS:          0  HIT:          0  MISS:          0
L1I WRITEBACK ACCESS:          0  HIT:          0  MISS:          0
L1I PREFETCH  REQUESTED:          0  ISSUED:          0  USEFUL:          0  USELESS:          0
L1I AVERAGE MISS LATENCY: 61.422 cycles
L1I

SHEET
L1I-total_access : 11304889
L1I-total_hit : 10546398
L1I-total_miss : 758491
L1I-load_access : 11304889
L1I-load_hit : 10546398
L1I-load_miss : 758491
L1I-rfo_access : 0
L1I-rfo_hit : 0
L1I-rfo_miss : 0
L1I-prefetch_access : 0
L1I-prefetch_hit : 0
L1I-prefetch_miss : 0
L1I-writeback_access : 0
L1I-writeback_hit : 0
L1I-writeback_miss : 0
L1I-prefetch_requested : 0
L1I-prefetch_issued : 0
L1I-prefetch_useful : 0
L1I-prefetch_useless : 0
L1I-Avg_miss_latency : 61.422
L1I-Morteza_fill_l2_prefetches : 0

L2C TOTAL     ACCESS:   12039368  HIT:    6064385  MISS:    5974983
L2C LOAD      ACCESS:     963493  HIT:     465235  MISS:     498258
L2C RFO       ACCESS:    5050393  HIT:       6634  MISS:    5043759
L2C PREFETCH  ACCESS:     867511  HIT:     434683  MISS:     432828
L2C WRITEBACK ACCESS:    5157971  HIT:    5157833  MISS:        138
L2C PREFETCH  REQUESTED:    1753780  ISSUED:    1753780  USEFUL:      14317  USELESS:     414955
L2C AVERAGE MISS LATENCY: 466.099 cycles
L2C

SHEET
L2C-total_access : 12039368
L2C-total_hit : 6064385
L2C-total_miss : 5974983
L2C-load_access : 963493
L2C-load_hit : 465235
L2C-load_miss : 498258
L2C-rfo_access : 5050393
L2C-rfo_hit : 6634
L2C-rfo_miss : 5043759
L2C-prefetch_access : 867511
L2C-prefetch_hit : 434683
L2C-prefetch_miss : 432828
L2C-writeback_access : 5157971
L2C-writeback_hit : 5157833
L2C-writeback_miss : 138
L2C-prefetch_requested : 1753780
L2C-prefetch_issued : 1753780
L2C-prefetch_useful : 14317
L2C-prefetch_useless : 414955
L2C-Avg_miss_latency : 466.099
L2C-Morteza_fill_l2_prefetches : 350784

LLC TOTAL     ACCESS:   11885077  HIT:    7153279  MISS:    4731798
LLC LOAD      ACCESS:     498188  HIT:     339085  MISS:     159103
LLC RFO       ACCESS:    5043759  HIT:     665381  MISS:    4378378
LLC PREFETCH  ACCESS:    1209052  HIT:    1014735  MISS:     194317
LLC WRITEBACK ACCESS:    5134078  HIT:    5134078  MISS:          0
LLC PREFETCH  REQUESTED:          0  ISSUED:          0  USEFUL:      62417  USELESS:     132043
LLC AVERAGE MISS LATENCY: 558.457 cycles
LLC

SHEET
LLC-total_access : 11885077
LLC-total_hit : 7153279
LLC-total_miss : 4731798
LLC-load_access : 498188
LLC-load_hit : 339085
LLC-load_miss : 159103
LLC-rfo_access : 5043759
LLC-rfo_hit : 665381
LLC-rfo_miss : 4378378
LLC-prefetch_access : 1209052
LLC-prefetch_hit : 1014735
LLC-prefetch_miss : 194317
LLC-writeback_access : 5134078
LLC-writeback_hit : 5134078
LLC-writeback_miss : 0
LLC-prefetch_requested : 0
LLC-prefetch_issued : 0
LLC-prefetch_useful : 62417
LLC-prefetch_useless : 132043
LLC-Avg_miss_latency : 558.457
LLC-Morteza_fill_l2_prefetches : 711660

Major fault: 0 Minor fault: 2817
CPU 0 L1D next line prefetcher final stats

DRAM Statistics
 CHANNEL 0
 RQ ROW_BUFFER_HIT:    1433842  ROW_BUFFER_MISS:    3297924
 DBUS_CONGESTED:    8087507
 WQ ROW_BUFFER_HIT:    1215516  ROW_BUFFER_MISS:    3191668  FULL:          0

 AVG_CONGESTED_CYCLE: 6

CPU 0 Branch Prediction Accuracy: 99.665% MPKI: 0.78342 Average ROB Occupancy at Mispredict: 68.2363

Branch types
NOT_BRANCH: 38305861 76.6117%
BRANCH_DIRECT_JUMP: 384281 0.768562%
BRANCH_INDIRECT: 71949 0.143898%
BRANCH_CONDITIONAL: 9879826 19.7597%
BRANCH_DIRECT_CALL: 650586 1.30117%
BRANCH_INDIRECT_CALL: 28456 0.056912%
BRANCH_RETURN: 679046 1.35809%
BRANCH_OTHER: 0 0%

