Initialize SIGNATURE TABLE
ST_SET: 1
ST_WAY: 256
ST_TAG_BIT: 16
ST_TAG_MASK: ffff

Initialize PATTERN TABLE
PT_SET: 512
PT_WAY: 4
SIG_DELTA_BIT: 7
C_SIG_BIT: 4
C_DELTA_BIT: 4

Initialize PREFETCH FILTER
FILTER_SET: 1024

*** ChampSim Multicore Out-of-Order Simulator ***

Warmup Instructions: 50000000
Simulation Instructions: 50000000
Number of CPUs: 1
LLC sets: 2048
LLC ways: 16
Off-chip DRAM Size: 4096 MB Channels: 1 Width: 64-bit Data Rate: 3200 MT/s

CPU 0 runs /home/mbaradaran/ChampSim/dpc3_traces/spec_perlbench_001.champsimtrace.xz
CPU 0 L1D next line prefetcher
Heartbeat CPU 0 instructions: 10000000 cycles: 3276304 heartbeat IPC: 3.05222 cumulative IPC: 3.05222 (Simulation time: 0 hr 1 min 7 sec) 
Heartbeat CPU 0 instructions: 20000000 cycles: 6541395 heartbeat IPC: 3.0627 cumulative IPC: 3.05745 (Simulation time: 0 hr 2 min 14 sec) 
Heartbeat CPU 0 instructions: 30000002 cycles: 9859327 heartbeat IPC: 3.01393 cumulative IPC: 3.0428 (Simulation time: 0 hr 3 min 22 sec) 
Heartbeat CPU 0 instructions: 40000002 cycles: 13115318 heartbeat IPC: 3.07126 cumulative IPC: 3.04987 (Simulation time: 0 hr 4 min 26 sec) 
Heartbeat CPU 0 instructions: 50000001 cycles: 16389356 heartbeat IPC: 3.05433 cumulative IPC: 3.05076 (Simulation time: 0 hr 5 min 27 sec) 

Warmup complete CPU 0 instructions: 50000001 cycles: 16389356 (Simulation time: 0 hr 5 min 27 sec) 

Heartbeat CPU 0 instructions: 60000001 cycles: 25408117 heartbeat IPC: 1.1088 cumulative IPC: 1.1088 (Simulation time: 0 hr 6 min 22 sec) 
Heartbeat CPU 0 instructions: 70000000 cycles: 34500431 heartbeat IPC: 1.09983 cumulative IPC: 1.1043 (Simulation time: 0 hr 7 min 19 sec) 
Heartbeat CPU 0 instructions: 80000000 cycles: 43310727 heartbeat IPC: 1.13504 cumulative IPC: 1.11436 (Simulation time: 0 hr 8 min 16 sec) 
Heartbeat CPU 0 instructions: 90000000 cycles: 49049958 heartbeat IPC: 1.74239 cumulative IPC: 1.22472 (Simulation time: 0 hr 9 min 2 sec) 
Heartbeat CPU 0 instructions: 100000002 cycles: 54963788 heartbeat IPC: 1.69095 cumulative IPC: 1.2962 (Simulation time: 0 hr 9 min 49 sec) 
Finished CPU 0 instructions: 50000001 cycles: 38574432 cumulative IPC: 1.2962 (Simulation time: 0 hr 9 min 49 sec) 

ChampSim completed all CPUs

Region of Interest Statistics

CPU 0 cumulative IPC: 1.2962 instructions: 50000001 cycles: 38574432

SHEET
IPC : 1.2962

L1D TOTAL     ACCESS:   21037295  HIT:   20622140  MISS:     415155
L1D LOAD      ACCESS:    7343651  HIT:    7130447  MISS:     213204
L1D RFO       ACCESS:    6548303  HIT:    6529778  MISS:      18525
L1D PREFETCH  ACCESS:    7145341  HIT:    6961915  MISS:     183426
L1D WRITEBACK ACCESS:          0  HIT:          0  MISS:          0
L1D PREFETCH  REQUESTED:    7361357  ISSUED:    7246174  USEFUL:      55728  USELESS:     127693
L1D AVERAGE MISS LATENCY: 57.7576 cycles
L1D

SHEET
L1D-total_access : 21037295
L1D-total_hit : 20622140
L1D-total_miss : 415155
L1D-load_access : 7343651
L1D-load_hit : 7130447
L1D-load_miss : 213204
L1D-rfo_access : 6548303
L1D-rfo_hit : 6529778
L1D-rfo_miss : 18525
L1D-prefetch_access : 7145341
L1D-prefetch_hit : 6961915
L1D-prefetch_miss : 183426
L1D-writeback_access : 0
L1D-writeback_hit : 0
L1D-writeback_miss : 0
L1D-prefetch_requested : 7361357
L1D-prefetch_issued : 7246174
L1D-prefetch_useful : 55728
L1D-prefetch_useless : 127693
L1D-Avg_miss_latency : 57.7576
L1D-Morteza_fill_l2_prefetches : 0

L1I TOTAL     ACCESS:    9159949  HIT:    8712162  MISS:     447787
L1I LOAD      ACCESS:    9159949  HIT:    8712162  MISS:     447787
L1I RFO       ACCESS:          0  HIT:          0  MISS:          0
L1I PREFETCH  ACCESS:          0  HIT:          0  MISS:          0
L1I WRITEBACK ACCESS:          0  HIT:          0  MISS:          0
L1I PREFETCH  REQUESTED:          0  ISSUED:          0  USEFUL:          0  USELESS:          0
L1I AVERAGE MISS LATENCY: 17.4909 cycles
L1I

SHEET
L1I-total_access : 9159949
L1I-total_hit : 8712162
L1I-total_miss : 447787
L1I-load_access : 9159949
L1I-load_hit : 8712162
L1I-load_miss : 447787
L1I-rfo_access : 0
L1I-rfo_hit : 0
L1I-rfo_miss : 0
L1I-prefetch_access : 0
L1I-prefetch_hit : 0
L1I-prefetch_miss : 0
L1I-writeback_access : 0
L1I-writeback_hit : 0
L1I-writeback_miss : 0
L1I-prefetch_requested : 0
L1I-prefetch_issued : 0
L1I-prefetch_useful : 0
L1I-prefetch_useless : 0
L1I-Avg_miss_latency : 17.4909
L1I-Morteza_fill_l2_prefetches : 0

L2C TOTAL     ACCESS:    1376911  HIT:    1213310  MISS:     163601
L2C LOAD      ACCESS:     654642  HIT:     561171  MISS:      93471
L2C RFO       ACCESS:      18310  HIT:      13037  MISS:       5273
L2C PREFETCH  ACCESS:     625003  HIT:     560457  MISS:      64546
L2C WRITEBACK ACCESS:      78956  HIT:      78645  MISS:        311
L2C PREFETCH  REQUESTED:     769173  ISSUED:     769173  USEFUL:       3826  USELESS:      60906
L2C AVERAGE MISS LATENCY: 118.882 cycles
L2C

SHEET
L2C-total_access : 1376911
L2C-total_hit : 1213310
L2C-total_miss : 163601
L2C-load_access : 654642
L2C-load_hit : 561171
L2C-load_miss : 93471
L2C-rfo_access : 18310
L2C-rfo_hit : 13037
L2C-rfo_miss : 5273
L2C-prefetch_access : 625003
L2C-prefetch_hit : 560457
L2C-prefetch_miss : 64546
L2C-writeback_access : 78956
L2C-writeback_hit : 78645
L2C-writeback_miss : 311
L2C-prefetch_requested : 769173
L2C-prefetch_issued : 769173
L2C-prefetch_useful : 3826
L2C-prefetch_useless : 60906
L2C-Avg_miss_latency : 118.882
L2C-Morteza_fill_l2_prefetches : 435330

LLC TOTAL     ACCESS:     376369  HIT:     231129  MISS:     145240
LLC LOAD      ACCESS:      93460  HIT:      41908  MISS:      51552
LLC RFO       ACCESS:       5273  HIT:       2218  MISS:       3055
LLC PREFETCH  ACCESS:     252897  HIT:     162823  MISS:      90074
LLC WRITEBACK ACCESS:      24739  HIT:      24180  MISS:        559
LLC PREFETCH  REQUESTED:          0  ISSUED:          0  USEFUL:      15618  USELESS:      74758
LLC AVERAGE MISS LATENCY: 158.238 cycles
LLC

SHEET
LLC-total_access : 376369
LLC-total_hit : 231129
LLC-total_miss : 145240
LLC-load_access : 93460
LLC-load_hit : 41908
LLC-load_miss : 51552
LLC-rfo_access : 5273
LLC-rfo_hit : 2218
LLC-rfo_miss : 3055
LLC-prefetch_access : 252897
LLC-prefetch_hit : 162823
LLC-prefetch_miss : 90074
LLC-writeback_access : 24739
LLC-writeback_hit : 24180
LLC-writeback_miss : 559
LLC-prefetch_requested : 0
LLC-prefetch_issued : 0
LLC-prefetch_useful : 15618
LLC-prefetch_useless : 74758
LLC-Avg_miss_latency : 158.238
LLC-Morteza_fill_l2_prefetches : 137352

Major fault: 0 Minor fault: 6364
CPU 0 L1D next line prefetcher final stats

DRAM Statistics
 CHANNEL 0
 RQ ROW_BUFFER_HIT:      33080  ROW_BUFFER_MISS:     111600
 DBUS_CONGESTED:      57337
 WQ ROW_BUFFER_HIT:       4248  ROW_BUFFER_MISS:      13120  FULL:          0

 AVG_CONGESTED_CYCLE: 4

CPU 0 Branch Prediction Accuracy: 98.7418% MPKI: 2.47758 Average ROB Occupancy at Mispredict: 65.4911

Branch types
NOT_BRANCH: 40154100 80.3082%
BRANCH_DIRECT_JUMP: 817094 1.63419%
BRANCH_INDIRECT: 303787 0.607574%
BRANCH_CONDITIONAL: 7492103 14.9842%
BRANCH_DIRECT_CALL: 471777 0.943554%
BRANCH_INDIRECT_CALL: 144546 0.289092%
BRANCH_RETURN: 616324 1.23265%
BRANCH_OTHER: 0 0%

