Initialize SIGNATURE TABLE
ST_SET: 1
ST_WAY: 256
ST_TAG_BIT: 16
ST_TAG_MASK: ffff

Initialize PATTERN TABLE
PT_SET: 512
PT_WAY: 4
SIG_DELTA_BIT: 7
C_SIG_BIT: 4
C_DELTA_BIT: 4

Initialize PREFETCH FILTER
FILTER_SET: 1024

*** ChampSim Multicore Out-of-Order Simulator ***

Warmup Instructions: 50000000
Simulation Instructions: 50000000
Number of CPUs: 1
LLC sets: 2048
LLC ways: 16
Off-chip DRAM Size: 4096 MB Channels: 1 Width: 64-bit Data Rate: 3200 MT/s

CPU 0 runs /home/mbaradaran/ChampSim/dpc3_traces/spec_gobmk_001.champsimtrace.xz
CPU 0 L1D next line prefetcher
Heartbeat CPU 0 instructions: 10000003 cycles: 3506659 heartbeat IPC: 2.85172 cumulative IPC: 2.85172 (Simulation time: 0 hr 1 min 11 sec) 
Heartbeat CPU 0 instructions: 20000002 cycles: 6986765 heartbeat IPC: 2.87348 cumulative IPC: 2.86256 (Simulation time: 0 hr 2 min 14 sec) 
Heartbeat CPU 0 instructions: 30000002 cycles: 10505217 heartbeat IPC: 2.84216 cumulative IPC: 2.85572 (Simulation time: 0 hr 3 min 15 sec) 
Heartbeat CPU 0 instructions: 40000001 cycles: 14024063 heartbeat IPC: 2.84184 cumulative IPC: 2.85224 (Simulation time: 0 hr 4 min 14 sec) 
Heartbeat CPU 0 instructions: 50000001 cycles: 17563888 heartbeat IPC: 2.825 cumulative IPC: 2.84675 (Simulation time: 0 hr 5 min 12 sec) 

Warmup complete CPU 0 instructions: 50000001 cycles: 17563888 (Simulation time: 0 hr 5 min 12 sec) 

Heartbeat CPU 0 instructions: 60000000 cycles: 27158433 heartbeat IPC: 1.04226 cumulative IPC: 1.04226 (Simulation time: 0 hr 5 min 57 sec) 
Heartbeat CPU 0 instructions: 70000002 cycles: 36527601 heartbeat IPC: 1.06733 cumulative IPC: 1.05465 (Simulation time: 0 hr 6 min 39 sec) 
Heartbeat CPU 0 instructions: 80000003 cycles: 46104908 heartbeat IPC: 1.04413 cumulative IPC: 1.05112 (Simulation time: 0 hr 7 min 24 sec) 
Heartbeat CPU 0 instructions: 90000001 cycles: 55227439 heartbeat IPC: 1.09619 cumulative IPC: 1.06203 (Simulation time: 0 hr 8 min 8 sec) 
Heartbeat CPU 0 instructions: 100000003 cycles: 64834583 heartbeat IPC: 1.04089 cumulative IPC: 1.05774 (Simulation time: 0 hr 8 min 53 sec) 
Finished CPU 0 instructions: 50000002 cycles: 47270695 cumulative IPC: 1.05774 (Simulation time: 0 hr 8 min 53 sec) 

ChampSim completed all CPUs

Region of Interest Statistics

CPU 0 cumulative IPC: 1.05774 instructions: 50000002 cycles: 47270695

SHEET
IPC : 1.05774

L1D TOTAL     ACCESS:   18241158  HIT:   17861462  MISS:     379696
L1D LOAD      ACCESS:    7333751  HIT:    7198633  MISS:     135118
L1D RFO       ACCESS:    3713427  HIT:    3609098  MISS:     104329
L1D PREFETCH  ACCESS:    7193980  HIT:    7053731  MISS:     140249
L1D WRITEBACK ACCESS:          0  HIT:          0  MISS:          0
L1D PREFETCH  REQUESTED:    7338340  ISSUED:    7255296  USEFUL:      45481  USELESS:      94773
L1D AVERAGE MISS LATENCY: 33.606 cycles
L1D

SHEET
L1D-total_access : 18241158
L1D-total_hit : 17861462
L1D-total_miss : 379696
L1D-load_access : 7333751
L1D-load_hit : 7198633
L1D-load_miss : 135118
L1D-rfo_access : 3713427
L1D-rfo_hit : 3609098
L1D-rfo_miss : 104329
L1D-prefetch_access : 7193980
L1D-prefetch_hit : 7053731
L1D-prefetch_miss : 140249
L1D-writeback_access : 0
L1D-writeback_hit : 0
L1D-writeback_miss : 0
L1D-prefetch_requested : 7338340
L1D-prefetch_issued : 7255296
L1D-prefetch_useful : 45481
L1D-prefetch_useless : 94773
L1D-Avg_miss_latency : 33.606
L1D-Morteza_fill_l2_prefetches : 0

L1I TOTAL     ACCESS:    8983822  HIT:    8449758  MISS:     534064
L1I LOAD      ACCESS:    8983822  HIT:    8449758  MISS:     534064
L1I RFO       ACCESS:          0  HIT:          0  MISS:          0
L1I PREFETCH  ACCESS:          0  HIT:          0  MISS:          0
L1I WRITEBACK ACCESS:          0  HIT:          0  MISS:          0
L1I PREFETCH  REQUESTED:          0  ISSUED:          0  USEFUL:          0  USELESS:          0
L1I AVERAGE MISS LATENCY: 15.094 cycles
L1I

SHEET
L1I-total_access : 8983822
L1I-total_hit : 8449758
L1I-total_miss : 534064
L1I-load_access : 8983822
L1I-load_hit : 8449758
L1I-load_miss : 534064
L1I-rfo_access : 0
L1I-rfo_hit : 0
L1I-rfo_miss : 0
L1I-prefetch_access : 0
L1I-prefetch_hit : 0
L1I-prefetch_miss : 0
L1I-writeback_access : 0
L1I-writeback_hit : 0
L1I-writeback_miss : 0
L1I-prefetch_requested : 0
L1I-prefetch_issued : 0
L1I-prefetch_useful : 0
L1I-prefetch_useless : 0
L1I-Avg_miss_latency : 15.094
L1I-Morteza_fill_l2_prefetches : 0

L2C TOTAL     ACCESS:    1579167  HIT:    1456511  MISS:     122656
L2C LOAD      ACCESS:     644797  HIT:     600187  MISS:      44610
L2C RFO       ACCESS:     104033  HIT:      70469  MISS:      33564
L2C PREFETCH  ACCESS:     691023  HIT:     646597  MISS:      44426
L2C WRITEBACK ACCESS:     139314  HIT:     139258  MISS:         56
L2C PREFETCH  REQUESTED:     754021  ISSUED:     753985  USEFUL:       3354  USELESS:      41176
L2C AVERAGE MISS LATENCY: 65.7902 cycles
L2C

SHEET
L2C-total_access : 1579167
L2C-total_hit : 1456511
L2C-total_miss : 122656
L2C-load_access : 644797
L2C-load_hit : 600187
L2C-load_miss : 44610
L2C-rfo_access : 104033
L2C-rfo_hit : 70469
L2C-rfo_miss : 33564
L2C-prefetch_access : 691023
L2C-prefetch_hit : 646597
L2C-prefetch_miss : 44426
L2C-writeback_access : 139314
L2C-writeback_hit : 139258
L2C-writeback_miss : 56
L2C-prefetch_requested : 754021
L2C-prefetch_issued : 753985
L2C-prefetch_useful : 3354
L2C-prefetch_useless : 41176
L2C-Avg_miss_latency : 65.7902
L2C-Morteza_fill_l2_prefetches : 530300

LLC TOTAL     ACCESS:     270414  HIT:     233731  MISS:      36683
LLC LOAD      ACCESS:      44607  HIT:      35869  MISS:       8738
LLC RFO       ACCESS:      33564  HIT:      26456  MISS:       7108
LLC PREFETCH  ACCESS:     148005  HIT:     127481  MISS:      20524
LLC WRITEBACK ACCESS:      44238  HIT:      43925  MISS:        313
LLC PREFETCH  REQUESTED:          0  ISSUED:          0  USEFUL:       1526  USELESS:      17794
LLC AVERAGE MISS LATENCY: 178.884 cycles
LLC

SHEET
LLC-total_access : 270414
LLC-total_hit : 233731
LLC-total_miss : 36683
LLC-load_access : 44607
LLC-load_hit : 35869
LLC-load_miss : 8738
LLC-rfo_access : 33564
LLC-rfo_hit : 26456
LLC-rfo_miss : 7108
LLC-prefetch_access : 148005
LLC-prefetch_hit : 127481
LLC-prefetch_miss : 20524
LLC-writeback_access : 44238
LLC-writeback_hit : 43925
LLC-writeback_miss : 313
LLC-prefetch_requested : 0
LLC-prefetch_issued : 0
LLC-prefetch_useful : 1526
LLC-prefetch_useless : 17794
LLC-Avg_miss_latency : 178.884
LLC-Morteza_fill_l2_prefetches : 93187

Major fault: 0 Minor fault: 4156
CPU 0 L1D next line prefetcher final stats

DRAM Statistics
 CHANNEL 0
 RQ ROW_BUFFER_HIT:       5081  ROW_BUFFER_MISS:      31286
 DBUS_CONGESTED:      20718
 WQ ROW_BUFFER_HIT:       1584  ROW_BUFFER_MISS:      14866  FULL:          0

 AVG_CONGESTED_CYCLE: 4

CPU 0 Branch Prediction Accuracy: 94.7729% MPKI: 9.72684 Average ROB Occupancy at Mispredict: 48.6005

Branch types
NOT_BRANCH: 40695383 81.3908%
BRANCH_DIRECT_JUMP: 422107 0.844214%
BRANCH_INDIRECT: 65 0.00013%
BRANCH_CONDITIONAL: 8105005 16.21%
BRANCH_DIRECT_CALL: 374913 0.749826%
BRANCH_INDIRECT_CALL: 13657 0.027314%
BRANCH_RETURN: 388556 0.777112%
BRANCH_OTHER: 0 0%

