Initialize SIGNATURE TABLE
ST_SET: 1
ST_WAY: 256
ST_TAG_BIT: 16
ST_TAG_MASK: ffff

Initialize PATTERN TABLE
PT_SET: 512
PT_WAY: 4
SIG_DELTA_BIT: 7
C_SIG_BIT: 4
C_DELTA_BIT: 4

Initialize PREFETCH FILTER
FILTER_SET: 1024

*** ChampSim Multicore Out-of-Order Simulator ***

Warmup Instructions: 50000000
Simulation Instructions: 50000000
Number of CPUs: 1
LLC sets: 2048
LLC ways: 16
Off-chip DRAM Size: 4096 MB Channels: 1 Width: 64-bit Data Rate: 3200 MT/s

CPU 0 runs /home/mbaradaran/ChampSim/dpc3_traces/spec_x264_001.champsimtrace.xz
CPU 0 L1D next line prefetcher
Heartbeat CPU 0 instructions: 10000002 cycles: 3058927 heartbeat IPC: 3.26912 cumulative IPC: 3.26912 (Simulation time: 0 hr 0 min 51 sec) 
Heartbeat CPU 0 instructions: 20000002 cycles: 6108251 heartbeat IPC: 3.27942 cumulative IPC: 3.27426 (Simulation time: 0 hr 1 min 39 sec) 
Heartbeat CPU 0 instructions: 30000002 cycles: 9143169 heartbeat IPC: 3.29498 cumulative IPC: 3.28114 (Simulation time: 0 hr 2 min 28 sec) 
Heartbeat CPU 0 instructions: 40000000 cycles: 12186719 heartbeat IPC: 3.28564 cumulative IPC: 3.28226 (Simulation time: 0 hr 3 min 15 sec) 
Heartbeat CPU 0 instructions: 50000000 cycles: 15228758 heartbeat IPC: 3.28727 cumulative IPC: 3.28326 (Simulation time: 0 hr 4 min 2 sec) 

Warmup complete CPU 0 instructions: 50000004 cycles: 15228759 (Simulation time: 0 hr 4 min 2 sec) 

Heartbeat CPU 0 instructions: 60000001 cycles: 21549429 heartbeat IPC: 1.58211 cumulative IPC: 1.58211 (Simulation time: 0 hr 4 min 31 sec) 
Heartbeat CPU 0 instructions: 70000000 cycles: 27840533 heartbeat IPC: 1.58955 cumulative IPC: 1.58582 (Simulation time: 0 hr 5 min 0 sec) 
Heartbeat CPU 0 instructions: 80000003 cycles: 34314534 heartbeat IPC: 1.54464 cumulative IPC: 1.57185 (Simulation time: 0 hr 5 min 29 sec) 
Heartbeat CPU 0 instructions: 90000002 cycles: 40763132 heartbeat IPC: 1.55072 cumulative IPC: 1.56652 (Simulation time: 0 hr 5 min 58 sec) 
Heartbeat CPU 0 instructions: 100000002 cycles: 47039273 heartbeat IPC: 1.59334 cumulative IPC: 1.57181 (Simulation time: 0 hr 6 min 28 sec) 
Finished CPU 0 instructions: 50000002 cycles: 31810515 cumulative IPC: 1.57181 (Simulation time: 0 hr 6 min 28 sec) 

ChampSim completed all CPUs

Region of Interest Statistics

CPU 0 cumulative IPC: 1.57181 instructions: 50000002 cycles: 31810515

SHEET
IPC : 1.57181

L1D TOTAL     ACCESS:   13153137  HIT:   12988572  MISS:     164565
L1D LOAD      ACCESS:    5184764  HIT:    5129492  MISS:      55272
L1D RFO       ACCESS:    2884981  HIT:    2850245  MISS:      34736
L1D PREFETCH  ACCESS:    5083392  HIT:    5008835  MISS:      74557
L1D WRITEBACK ACCESS:          0  HIT:          0  MISS:          0
L1D PREFETCH  REQUESTED:    5200492  ISSUED:    5136279  USEFUL:      26321  USELESS:      48041
L1D AVERAGE MISS LATENCY: 39.5737 cycles
L1D

SHEET
L1D-total_access : 13153137
L1D-total_hit : 12988572
L1D-total_miss : 164565
L1D-load_access : 5184764
L1D-load_hit : 5129492
L1D-load_miss : 55272
L1D-rfo_access : 2884981
L1D-rfo_hit : 2850245
L1D-rfo_miss : 34736
L1D-prefetch_access : 5083392
L1D-prefetch_hit : 5008835
L1D-prefetch_miss : 74557
L1D-writeback_access : 0
L1D-writeback_hit : 0
L1D-writeback_miss : 0
L1D-prefetch_requested : 5200492
L1D-prefetch_issued : 5136279
L1D-prefetch_useful : 26321
L1D-prefetch_useless : 48041
L1D-Avg_miss_latency : 39.5737
L1D-Morteza_fill_l2_prefetches : 0

L1I TOTAL     ACCESS:    8037287  HIT:    7796295  MISS:     240992
L1I LOAD      ACCESS:    8037287  HIT:    7796295  MISS:     240992
L1I RFO       ACCESS:          0  HIT:          0  MISS:          0
L1I PREFETCH  ACCESS:          0  HIT:          0  MISS:          0
L1I WRITEBACK ACCESS:          0  HIT:          0  MISS:          0
L1I PREFETCH  REQUESTED:          0  ISSUED:          0  USEFUL:          0  USELESS:          0
L1I AVERAGE MISS LATENCY: 14.3503 cycles
L1I

SHEET
L1I-total_access : 8037287
L1I-total_hit : 7796295
L1I-total_miss : 240992
L1I-load_access : 8037287
L1I-load_hit : 7796295
L1I-load_miss : 240992
L1I-rfo_access : 0
L1I-rfo_hit : 0
L1I-rfo_miss : 0
L1I-prefetch_access : 0
L1I-prefetch_hit : 0
L1I-prefetch_miss : 0
L1I-writeback_access : 0
L1I-writeback_hit : 0
L1I-writeback_miss : 0
L1I-prefetch_requested : 0
L1I-prefetch_issued : 0
L1I-prefetch_useful : 0
L1I-prefetch_useless : 0
L1I-Avg_miss_latency : 14.3503
L1I-Morteza_fill_l2_prefetches : 0

L2C TOTAL     ACCESS:     785360  HIT:     746624  MISS:      38736
L2C LOAD      ACCESS:     295480  HIT:     288438  MISS:       7042
L2C RFO       ACCESS:      34609  HIT:      22539  MISS:      12070
L2C PREFETCH  ACCESS:     411524  HIT:     391963  MISS:      19561
L2C WRITEBACK ACCESS:      43747  HIT:      43684  MISS:         63
L2C PREFETCH  REQUESTED:     469932  ISSUED:     469279  USEFUL:       8913  USELESS:      10970
L2C AVERAGE MISS LATENCY: 105.345 cycles
L2C

SHEET
L2C-total_access : 785360
L2C-total_hit : 746624
L2C-total_miss : 38736
L2C-load_access : 295480
L2C-load_hit : 288438
L2C-load_miss : 7042
L2C-rfo_access : 34609
L2C-rfo_hit : 22539
L2C-rfo_miss : 12070
L2C-prefetch_access : 411524
L2C-prefetch_hit : 391963
L2C-prefetch_miss : 19561
L2C-writeback_access : 43747
L2C-writeback_hit : 43684
L2C-writeback_miss : 63
L2C-prefetch_requested : 469932
L2C-prefetch_issued : 469279
L2C-prefetch_useful : 8913
L2C-prefetch_useless : 10970
L2C-Avg_miss_latency : 105.345
L2C-Morteza_fill_l2_prefetches : 336656

LLC TOTAL     ACCESS:     131695  HIT:     102662  MISS:      29033
LLC LOAD      ACCESS:       7039  HIT:       4911  MISS:       2128
LLC RFO       ACCESS:      12070  HIT:        464  MISS:      11606
LLC PREFETCH  ACCESS:      99015  HIT:      83797  MISS:      15218
LLC WRITEBACK ACCESS:      13571  HIT:      13490  MISS:         81
LLC PREFETCH  REQUESTED:          0  ISSUED:          0  USEFUL:       1718  USELESS:      13863
LLC AVERAGE MISS LATENCY: 162.627 cycles
LLC

SHEET
LLC-total_access : 131695
LLC-total_hit : 102662
LLC-total_miss : 29033
LLC-load_access : 7039
LLC-load_hit : 4911
LLC-load_miss : 2128
LLC-rfo_access : 12070
LLC-rfo_hit : 464
LLC-rfo_miss : 11606
LLC-prefetch_access : 99015
LLC-prefetch_hit : 83797
LLC-prefetch_miss : 15218
LLC-writeback_access : 13571
LLC-writeback_hit : 13490
LLC-writeback_miss : 81
LLC-prefetch_requested : 0
LLC-prefetch_issued : 0
LLC-prefetch_useful : 1718
LLC-prefetch_useless : 13863
LLC-Avg_miss_latency : 162.627
LLC-Morteza_fill_l2_prefetches : 70004

Major fault: 0 Minor fault: 1284
CPU 0 L1D next line prefetcher final stats

DRAM Statistics
 CHANNEL 0
 RQ ROW_BUFFER_HIT:       9167  ROW_BUFFER_MISS:      19785
 DBUS_CONGESTED:      11880
 WQ ROW_BUFFER_HIT:       2957  ROW_BUFFER_MISS:       9806  FULL:          0

 AVG_CONGESTED_CYCLE: 6

CPU 0 Branch Prediction Accuracy: 97.1633% MPKI: 1.73704 Average ROB Occupancy at Mispredict: 33.9466

Branch types
NOT_BRANCH: 46937921 93.8758%
BRANCH_DIRECT_JUMP: 170816 0.341632%
BRANCH_INDIRECT: 0 0%
BRANCH_CONDITIONAL: 2532774 5.06555%
BRANCH_DIRECT_CALL: 114227 0.228454%
BRANCH_INDIRECT_CALL: 64863 0.129726%
BRANCH_RETURN: 179089 0.358178%
BRANCH_OTHER: 0 0%

