Initialize SIGNATURE TABLE
ST_SET: 1
ST_WAY: 256
ST_TAG_BIT: 16
ST_TAG_MASK: ffff

Initialize PATTERN TABLE
PT_SET: 512
PT_WAY: 4
SIG_DELTA_BIT: 7
C_SIG_BIT: 4
C_DELTA_BIT: 4

Initialize PREFETCH FILTER
FILTER_SET: 1024

*** ChampSim Multicore Out-of-Order Simulator ***

Warmup Instructions: 50000000
Simulation Instructions: 50000000
Number of CPUs: 1
LLC sets: 2048
LLC ways: 16
Off-chip DRAM Size: 4096 MB Channels: 1 Width: 64-bit Data Rate: 3200 MT/s

CPU 0 runs /home/mbaradaran/ChampSim/dpc3_traces/spec_gobmk_002.champsimtrace.xz
CPU 0 L1D next line prefetcher
Heartbeat CPU 0 instructions: 10000001 cycles: 3287553 heartbeat IPC: 3.04178 cumulative IPC: 3.04178 (Simulation time: 0 hr 1 min 3 sec) 
Heartbeat CPU 0 instructions: 20000000 cycles: 6619178 heartbeat IPC: 3.00154 cumulative IPC: 3.02152 (Simulation time: 0 hr 2 min 4 sec) 
Heartbeat CPU 0 instructions: 30000000 cycles: 9957205 heartbeat IPC: 2.99578 cumulative IPC: 3.01289 (Simulation time: 0 hr 3 min 5 sec) 
Heartbeat CPU 0 instructions: 40000000 cycles: 13266806 heartbeat IPC: 3.02151 cumulative IPC: 3.01504 (Simulation time: 0 hr 4 min 8 sec) 
Heartbeat CPU 0 instructions: 50000003 cycles: 16530485 heartbeat IPC: 3.06403 cumulative IPC: 3.02471 (Simulation time: 0 hr 5 min 4 sec) 

Warmup complete CPU 0 instructions: 50000003 cycles: 16530485 (Simulation time: 0 hr 5 min 4 sec) 

Heartbeat CPU 0 instructions: 60000001 cycles: 25171824 heartbeat IPC: 1.15723 cumulative IPC: 1.15723 (Simulation time: 0 hr 5 min 45 sec) 
Heartbeat CPU 0 instructions: 70000001 cycles: 33761341 heartbeat IPC: 1.16421 cumulative IPC: 1.16071 (Simulation time: 0 hr 6 min 24 sec) 
Heartbeat CPU 0 instructions: 80000002 cycles: 42213688 heartbeat IPC: 1.1831 cumulative IPC: 1.16808 (Simulation time: 0 hr 7 min 4 sec) 
Heartbeat CPU 0 instructions: 90000001 cycles: 50765617 heartbeat IPC: 1.16933 cumulative IPC: 1.16839 (Simulation time: 0 hr 7 min 42 sec) 
Heartbeat CPU 0 instructions: 100000003 cycles: 59623155 heartbeat IPC: 1.12898 cumulative IPC: 1.16029 (Simulation time: 0 hr 8 min 21 sec) 
Finished CPU 0 instructions: 50000000 cycles: 43092670 cumulative IPC: 1.16029 (Simulation time: 0 hr 8 min 21 sec) 

ChampSim completed all CPUs

Region of Interest Statistics

CPU 0 cumulative IPC: 1.16029 instructions: 50000000 cycles: 43092670

SHEET
IPC : 1.16029

L1D TOTAL     ACCESS:   18016962  HIT:   17893832  MISS:     123130
L1D LOAD      ACCESS:    6848673  HIT:    6814549  MISS:      34124
L1D RFO       ACCESS:    4398472  HIT:    4355825  MISS:      42647
L1D PREFETCH  ACCESS:    6769817  HIT:    6723458  MISS:      46359
L1D WRITEBACK ACCESS:          0  HIT:          0  MISS:          0
L1D PREFETCH  REQUESTED:    6850888  ISSUED:    6783008  USEFUL:      17300  USELESS:      29242
L1D AVERAGE MISS LATENCY: 50.2515 cycles
L1D

SHEET
L1D-total_access : 18016962
L1D-total_hit : 17893832
L1D-total_miss : 123130
L1D-load_access : 6848673
L1D-load_hit : 6814549
L1D-load_miss : 34124
L1D-rfo_access : 4398472
L1D-rfo_hit : 4355825
L1D-rfo_miss : 42647
L1D-prefetch_access : 6769817
L1D-prefetch_hit : 6723458
L1D-prefetch_miss : 46359
L1D-writeback_access : 0
L1D-writeback_hit : 0
L1D-writeback_miss : 0
L1D-prefetch_requested : 6850888
L1D-prefetch_issued : 6783008
L1D-prefetch_useful : 17300
L1D-prefetch_useless : 29242
L1D-Avg_miss_latency : 50.2515
L1D-Morteza_fill_l2_prefetches : 0

L1I TOTAL     ACCESS:    8904528  HIT:    8098234  MISS:     806294
L1I LOAD      ACCESS:    8904528  HIT:    8098234  MISS:     806294
L1I RFO       ACCESS:          0  HIT:          0  MISS:          0
L1I PREFETCH  ACCESS:          0  HIT:          0  MISS:          0
L1I WRITEBACK ACCESS:          0  HIT:          0  MISS:          0
L1I PREFETCH  REQUESTED:          0  ISSUED:          0  USEFUL:          0  USELESS:          0
L1I AVERAGE MISS LATENCY: 14.3614 cycles
L1I

SHEET
L1I-total_access : 8904528
L1I-total_hit : 8098234
L1I-total_miss : 806294
L1I-load_access : 8904528
L1I-load_hit : 8098234
L1I-load_miss : 806294
L1I-rfo_access : 0
L1I-rfo_hit : 0
L1I-rfo_miss : 0
L1I-prefetch_access : 0
L1I-prefetch_hit : 0
L1I-prefetch_miss : 0
L1I-writeback_access : 0
L1I-writeback_hit : 0
L1I-writeback_miss : 0
L1I-prefetch_requested : 0
L1I-prefetch_issued : 0
L1I-prefetch_useful : 0
L1I-prefetch_useless : 0
L1I-Avg_miss_latency : 14.3614
L1I-Morteza_fill_l2_prefetches : 0

L2C TOTAL     ACCESS:    1740183  HIT:    1703167  MISS:      37016
L2C LOAD      ACCESS:     839513  HIT:     823876  MISS:      15637
L2C RFO       ACCESS:      42547  HIT:      39862  MISS:       2685
L2C PREFETCH  ACCESS:     783923  HIT:     765344  MISS:      18579
L2C WRITEBACK ACCESS:      74200  HIT:      74085  MISS:        115
L2C PREFETCH  REQUESTED:     839788  ISSUED:     839779  USEFUL:       2021  USELESS:      17041
L2C AVERAGE MISS LATENCY: 125.105 cycles
L2C

SHEET
L2C-total_access : 1740183
L2C-total_hit : 1703167
L2C-total_miss : 37016
L2C-load_access : 839513
L2C-load_hit : 823876
L2C-load_miss : 15637
L2C-rfo_access : 42547
L2C-rfo_hit : 39862
L2C-rfo_miss : 2685
L2C-prefetch_access : 783923
L2C-prefetch_hit : 765344
L2C-prefetch_miss : 18579
L2C-writeback_access : 74200
L2C-writeback_hit : 74085
L2C-writeback_miss : 115
L2C-prefetch_requested : 839788
L2C-prefetch_issued : 839779
L2C-prefetch_useful : 2021
L2C-prefetch_useless : 17041
L2C-Avg_miss_latency : 125.105
L2C-Morteza_fill_l2_prefetches : 736880

LLC TOTAL     ACCESS:     112579  HIT:      81016  MISS:      31563
LLC LOAD      ACCESS:      15634  HIT:       6705  MISS:       8929
LLC RFO       ACCESS:       2685  HIT:       1070  MISS:       1615
LLC PREFETCH  ACCESS:      76393  HIT:      55896  MISS:      20497
LLC WRITEBACK ACCESS:      17867  HIT:      17345  MISS:        522
LLC PREFETCH  REQUESTED:          0  ISSUED:          0  USEFUL:       2301  USELESS:      18484
LLC AVERAGE MISS LATENCY: 182.475 cycles
LLC

SHEET
LLC-total_access : 112579
LLC-total_hit : 81016
LLC-total_miss : 31563
LLC-load_access : 15634
LLC-load_hit : 6705
LLC-load_miss : 8929
LLC-rfo_access : 2685
LLC-rfo_hit : 1070
LLC-rfo_miss : 1615
LLC-prefetch_access : 76393
LLC-prefetch_hit : 55896
LLC-prefetch_miss : 20497
LLC-writeback_access : 17867
LLC-writeback_hit : 17345
LLC-writeback_miss : 522
LLC-prefetch_requested : 0
LLC-prefetch_issued : 0
LLC-prefetch_useful : 2301
LLC-prefetch_useless : 18484
LLC-Avg_miss_latency : 182.475
LLC-Morteza_fill_l2_prefetches : 45659

Major fault: 0 Minor fault: 2776
CPU 0 L1D next line prefetcher final stats

DRAM Statistics
 CHANNEL 0
 RQ ROW_BUFFER_HIT:       2641  ROW_BUFFER_MISS:      28400
 DBUS_CONGESTED:      15705
 WQ ROW_BUFFER_HIT:        793  ROW_BUFFER_MISS:      12571  FULL:          0

 AVG_CONGESTED_CYCLE: 4

CPU 0 Branch Prediction Accuracy: 93.9974% MPKI: 10.2447 Average ROB Occupancy at Mispredict: 32.781

Branch types
NOT_BRANCH: 41466055 82.9321%
BRANCH_DIRECT_JUMP: 464313 0.928626%
BRANCH_INDIRECT: 32 6.4e-05%
BRANCH_CONDITIONAL: 7069452 14.1389%
BRANCH_DIRECT_CALL: 499587 0.999174%
BRANCH_INDIRECT_CALL: 342 0.000684%
BRANCH_RETURN: 499906 0.999812%
BRANCH_OTHER: 0 0%

