Initialize SIGNATURE TABLE
ST_SET: 1
ST_WAY: 256
ST_TAG_BIT: 16
ST_TAG_MASK: ffff

Initialize PATTERN TABLE
PT_SET: 512
PT_WAY: 4
SIG_DELTA_BIT: 7
C_SIG_BIT: 4
C_DELTA_BIT: 4

Initialize PREFETCH FILTER
FILTER_SET: 1024
MANA initialize 
tds: 2 tdm: 2
size MANA SINGLE: 15.5 KB
size MANA NULTIPLE: 0 KB
size HOBPT: 0.703125 KB
size SRQ: 0.14502 KB
size SABs: 0.290039 KB
size prefetch queue: 0.453125 KB
total: 17.0913 KB

*** ChampSim Multicore Out-of-Order Simulator ***

Warmup Instructions: 50000000
Simulation Instructions: 50000000
Number of CPUs: 1
LLC sets: 2048
LLC ways: 16
Off-chip DRAM Size: 4096 MB Channels: 1 Width: 64-bit Data Rate: 3200 MT/s

CPU 0 runs /home/mbaradaran/ChampSim/dpc3_traces/client_007.champsimtrace.xz
CPU 0 L1D next line prefetcher
Heartbeat CPU 0 instructions: 10000001 cycles: 3642143 heartbeat IPC: 2.74564 cumulative IPC: 2.74564 (Simulation time: 0 hr 1 min 12 sec) 
Heartbeat CPU 0 instructions: 20000003 cycles: 7034040 heartbeat IPC: 2.9482 cumulative IPC: 2.84332 (Simulation time: 0 hr 2 min 24 sec) 
Heartbeat CPU 0 instructions: 30000000 cycles: 10905766 heartbeat IPC: 2.58283 cumulative IPC: 2.75084 (Simulation time: 0 hr 3 min 47 sec) 
Heartbeat CPU 0 instructions: 40000003 cycles: 15065723 heartbeat IPC: 2.40387 cumulative IPC: 2.65503 (Simulation time: 0 hr 5 min 11 sec) 
Heartbeat CPU 0 instructions: 50000002 cycles: 18470747 heartbeat IPC: 2.93684 cumulative IPC: 2.70698 (Simulation time: 0 hr 6 min 24 sec) 

Warmup complete CPU 0 instructions: 50000002 cycles: 18470747 (Simulation time: 0 hr 6 min 24 sec) 

Heartbeat CPU 0 instructions: 60000003 cycles: 25492552 heartbeat IPC: 1.42414 cumulative IPC: 1.42414 (Simulation time: 0 hr 7 min 43 sec) 
Heartbeat CPU 0 instructions: 70000003 cycles: 34362158 heartbeat IPC: 1.12745 cumulative IPC: 1.25854 (Simulation time: 0 hr 9 min 6 sec) 
Heartbeat CPU 0 instructions: 80000002 cycles: 39741632 heartbeat IPC: 1.85892 cumulative IPC: 1.41038 (Simulation time: 0 hr 10 min 7 sec) 
Heartbeat CPU 0 instructions: 90000002 cycles: 47519244 heartbeat IPC: 1.28574 cumulative IPC: 1.37701 (Simulation time: 0 hr 11 min 32 sec) 
Heartbeat CPU 0 instructions: 100000002 cycles: 56465541 heartbeat IPC: 1.11778 cumulative IPC: 1.31597 (Simulation time: 0 hr 12 min 42 sec) 
Finished CPU 0 instructions: 50000000 cycles: 37994794 cumulative IPC: 1.31597 (Simulation time: 0 hr 12 min 42 sec) 

ChampSim completed all CPUs

Region of Interest Statistics

CPU 0 cumulative IPC: 1.31597 instructions: 50000000 cycles: 37994794

SHEET
IPC : 1.31597

L1D TOTAL     ACCESS:   21286025  HIT:   20116758  MISS:    1169267
L1D LOAD      ACCESS:    8411655  HIT:    7873540  MISS:     538115
L1D RFO       ACCESS:    4871273  HIT:    4780080  MISS:      91193
L1D PREFETCH  ACCESS:    8003097  HIT:    7463138  MISS:     539959
L1D WRITEBACK ACCESS:          0  HIT:          0  MISS:          0
L1D PREFETCH  REQUESTED:    8464139  ISSUED:    8221126  USEFUL:     159352  USELESS:     380622
L1D AVERAGE MISS LATENCY: 34.3947 cycles
L1D

SHEET
L1D-total_access : 21286025
L1D-total_hit : 20116758
L1D-total_miss : 1169267
L1D-load_access : 8411655
L1D-load_hit : 7873540
L1D-load_miss : 538115
L1D-rfo_access : 4871273
L1D-rfo_hit : 4780080
L1D-rfo_miss : 91193
L1D-prefetch_access : 8003097
L1D-prefetch_hit : 7463138
L1D-prefetch_miss : 539959
L1D-writeback_access : 0
L1D-writeback_hit : 0
L1D-writeback_miss : 0
L1D-prefetch_requested : 8464139
L1D-prefetch_issued : 8221126
L1D-prefetch_useful : 159352
L1D-prefetch_useless : 380622
L1D-Avg_miss_latency : 34.3947
L1D-Morteza_fill_l2_prefetches : 0

L1I TOTAL     ACCESS:   13345905  HIT:   12382502  MISS:     963403
L1I LOAD      ACCESS:    9068109  HIT:    8914578  MISS:     153531
L1I RFO       ACCESS:          0  HIT:          0  MISS:          0
L1I PREFETCH  ACCESS:    4277796  HIT:    3467924  MISS:     809872
L1I WRITEBACK ACCESS:          0  HIT:          0  MISS:          0
L1I PREFETCH  REQUESTED:    4506036  ISSUED:    4497278  USEFUL:     680718  USELESS:     129200
L1I AVERAGE MISS LATENCY: 15.9906 cycles
L1I

SHEET
L1I-total_access : 13345905
L1I-total_hit : 12382502
L1I-total_miss : 963403
L1I-load_access : 9068109
L1I-load_hit : 8914578
L1I-load_miss : 153531
L1I-rfo_access : 0
L1I-rfo_hit : 0
L1I-rfo_miss : 0
L1I-prefetch_access : 4277796
L1I-prefetch_hit : 3467924
L1I-prefetch_miss : 809872
L1I-writeback_access : 0
L1I-writeback_hit : 0
L1I-writeback_miss : 0
L1I-prefetch_requested : 4506036
L1I-prefetch_issued : 4497278
L1I-prefetch_useful : 680718
L1I-prefetch_useless : 129200
L1I-Avg_miss_latency : 15.9906
L1I-Morteza_fill_l2_prefetches : 0

L2C TOTAL     ACCESS:    3087612  HIT:    2881423  MISS:     206189
L2C LOAD      ACCESS:     621861  HIT:     551704  MISS:      70157
L2C RFO       ACCESS:      89518  HIT:      47943  MISS:      41575
L2C PREFETCH  ACCESS:    2048522  HIT:    1954179  MISS:      94343
L2C WRITEBACK ACCESS:     327711  HIT:     327597  MISS:        114
L2C PREFETCH  REQUESTED:    2441393  ISSUED:    2436792  USEFUL:       9399  USELESS:      84389
L2C AVERAGE MISS LATENCY: 124.852 cycles
L2C

SHEET
L2C-total_access : 3087612
L2C-total_hit : 2881423
L2C-total_miss : 206189
L2C-load_access : 621861
L2C-load_hit : 551704
L2C-load_miss : 70157
L2C-rfo_access : 89518
L2C-rfo_hit : 47943
L2C-rfo_miss : 41575
L2C-prefetch_access : 2048522
L2C-prefetch_hit : 1954179
L2C-prefetch_miss : 94343
L2C-writeback_access : 327711
L2C-writeback_hit : 327597
L2C-writeback_miss : 114
L2C-prefetch_requested : 2441393
L2C-prefetch_issued : 2436792
L2C-prefetch_useful : 9399
L2C-prefetch_useless : 84389
L2C-Avg_miss_latency : 124.852
L2C-Morteza_fill_l2_prefetches : 641207

LLC TOTAL     ACCESS:     957150  HIT:     789686  MISS:     167464
LLC LOAD      ACCESS:      70064  HIT:      34835  MISS:      35229
LLC RFO       ACCESS:      41573  HIT:       7159  MISS:      34414
LLC PREFETCH  ACCESS:     771076  HIT:     673577  MISS:      97499
LLC WRITEBACK ACCESS:      74437  HIT:      74115  MISS:        322
LLC PREFETCH  REQUESTED:          0  ISSUED:          0  USEFUL:      19034  USELESS:      78691
LLC AVERAGE MISS LATENCY: 181.47 cycles
LLC

SHEET
LLC-total_access : 957150
LLC-total_hit : 789686
LLC-total_miss : 167464
LLC-load_access : 70064
LLC-load_hit : 34835
LLC-load_miss : 35229
LLC-rfo_access : 41573
LLC-rfo_hit : 7159
LLC-rfo_miss : 34414
LLC-prefetch_access : 771076
LLC-prefetch_hit : 673577
LLC-prefetch_miss : 97499
LLC-writeback_access : 74437
LLC-writeback_hit : 74115
LLC-writeback_miss : 322
LLC-prefetch_requested : 0
LLC-prefetch_issued : 0
LLC-prefetch_useful : 19034
LLC-prefetch_useless : 78691
LLC-Avg_miss_latency : 181.47
LLC-Morteza_fill_l2_prefetches : 622268

Major fault: 0 Minor fault: 4405



Printing Logs
statHeadFound: 663208
statHeadMissing: 1400975
statStreamBufferHit: 11607190
statPrefetchEntryFound: 3109706
statCompactorMatch: 12596826
statStreamTrackerLookup: 13671373
statRecord: 1074547
statGetPointer: 2064183
statEnqueuePrefetch: 9162754
statPrefetchQueueIsFull: 919
StreamBufferHitRate: 0.849014
Regions' size: 4978
next_region_correct: 672622
next_region_wrong: 396929
next_region_correct_prediction: 0.628883
statStreamBufferLookups: 984338856
statL1iLookups: 73302032
statCompactorLookups: 492169428
morteza: start

SHEET
mana_table_access_counter : 4185154
hobp_table_access_counter : 15665537
sab_access_counter : 14716896
srq_access_counter : 12355225

morteza: end
CPU 0 L1D next line prefetcher final stats

DRAM Statistics
 CHANNEL 0
 RQ ROW_BUFFER_HIT:      35500  ROW_BUFFER_MISS:     131638
 DBUS_CONGESTED:      94592
 WQ ROW_BUFFER_HIT:      13160  ROW_BUFFER_MISS:      45411  FULL:          0

 AVG_CONGESTED_CYCLE: 5

CPU 0 Branch Prediction Accuracy: 98.8607% MPKI: 1.8623 Average ROB Occupancy at Mispredict: 112.295

Branch types
NOT_BRANCH: 41826773 83.6535%
BRANCH_DIRECT_JUMP: 735330 1.47066%
BRANCH_INDIRECT: 269194 0.538388%
BRANCH_CONDITIONAL: 5957947 11.9159%
BRANCH_DIRECT_CALL: 368758 0.737516%
BRANCH_INDIRECT_CALL: 226975 0.45395%
BRANCH_RETURN: 614696 1.22939%
BRANCH_OTHER: 0 0%

