Initialize SIGNATURE TABLE
ST_SET: 1
ST_WAY: 256
ST_TAG_BIT: 16
ST_TAG_MASK: ffff

Initialize PATTERN TABLE
PT_SET: 512
PT_WAY: 4
SIG_DELTA_BIT: 7
C_SIG_BIT: 4
C_DELTA_BIT: 4

Initialize PREFETCH FILTER
FILTER_SET: 1024
MANA initialize 
tds: 2 tdm: 2
size MANA SINGLE: 15.5 KB
size MANA NULTIPLE: 0 KB
size HOBPT: 0.703125 KB
size SRQ: 0.14502 KB
size SABs: 0.290039 KB
size prefetch queue: 0.453125 KB
total: 17.0913 KB

*** ChampSim Multicore Out-of-Order Simulator ***

Warmup Instructions: 50000000
Simulation Instructions: 50000000
Number of CPUs: 1
LLC sets: 2048
LLC ways: 16
Off-chip DRAM Size: 4096 MB Channels: 1 Width: 64-bit Data Rate: 3200 MT/s

CPU 0 runs /home/mbaradaran/ChampSim/dpc3_traces/server_012.champsimtrace.xz
CPU 0 L1D next line prefetcher
Heartbeat CPU 0 instructions: 10000002 cycles: 3195578 heartbeat IPC: 3.12932 cumulative IPC: 3.12932 (Simulation time: 0 hr 1 min 11 sec) 
Heartbeat CPU 0 instructions: 20000002 cycles: 6393770 heartbeat IPC: 3.12677 cumulative IPC: 3.12805 (Simulation time: 0 hr 2 min 21 sec) 
Heartbeat CPU 0 instructions: 30000001 cycles: 9592620 heartbeat IPC: 3.12612 cumulative IPC: 3.1274 (Simulation time: 0 hr 3 min 38 sec) 
Heartbeat CPU 0 instructions: 40000000 cycles: 12798057 heartbeat IPC: 3.1197 cumulative IPC: 3.12547 (Simulation time: 0 hr 4 min 51 sec) 
Heartbeat CPU 0 instructions: 50000003 cycles: 15995963 heartbeat IPC: 3.12705 cumulative IPC: 3.12579 (Simulation time: 0 hr 6 min 0 sec) 

Warmup complete CPU 0 instructions: 50000003 cycles: 15995963 (Simulation time: 0 hr 6 min 0 sec) 

Heartbeat CPU 0 instructions: 60000002 cycles: 23579504 heartbeat IPC: 1.31865 cumulative IPC: 1.31865 (Simulation time: 0 hr 7 min 5 sec) 
Heartbeat CPU 0 instructions: 70000000 cycles: 31224127 heartbeat IPC: 1.30811 cumulative IPC: 1.31336 (Simulation time: 0 hr 8 min 9 sec) 
Heartbeat CPU 0 instructions: 80000003 cycles: 38916879 heartbeat IPC: 1.29993 cumulative IPC: 1.30885 (Simulation time: 0 hr 9 min 15 sec) 
Heartbeat CPU 0 instructions: 90000001 cycles: 46824119 heartbeat IPC: 1.26466 cumulative IPC: 1.29752 (Simulation time: 0 hr 10 min 19 sec) 
Heartbeat CPU 0 instructions: 100000002 cycles: 54622900 heartbeat IPC: 1.28225 cumulative IPC: 1.29443 (Simulation time: 0 hr 11 min 26 sec) 
Finished CPU 0 instructions: 50000001 cycles: 38626938 cumulative IPC: 1.29443 (Simulation time: 0 hr 11 min 26 sec) 

ChampSim completed all CPUs

Region of Interest Statistics

CPU 0 cumulative IPC: 1.29443 instructions: 50000001 cycles: 38626938

SHEET
IPC : 1.29443

L1D TOTAL     ACCESS:   17560114  HIT:   16516963  MISS:    1043151
L1D LOAD      ACCESS:    6413983  HIT:    5928973  MISS:     485010
L1D RFO       ACCESS:    4971170  HIT:    4889168  MISS:      82002
L1D PREFETCH  ACCESS:    6174961  HIT:    5698822  MISS:     476139
L1D WRITEBACK ACCESS:          0  HIT:          0  MISS:          0
L1D PREFETCH  REQUESTED:    6449913  ISSUED:    6349210  USEFUL:     135344  USELESS:     340816
L1D AVERAGE MISS LATENCY: 39.9759 cycles
L1D

SHEET
L1D-total_access : 17560114
L1D-total_hit : 16516963
L1D-total_miss : 1043151
L1D-load_access : 6413983
L1D-load_hit : 5928973
L1D-load_miss : 485010
L1D-rfo_access : 4971170
L1D-rfo_hit : 4889168
L1D-rfo_miss : 82002
L1D-prefetch_access : 6174961
L1D-prefetch_hit : 5698822
L1D-prefetch_miss : 476139
L1D-writeback_access : 0
L1D-writeback_hit : 0
L1D-writeback_miss : 0
L1D-prefetch_requested : 6449913
L1D-prefetch_issued : 6349210
L1D-prefetch_useful : 135344
L1D-prefetch_useless : 340816
L1D-Avg_miss_latency : 39.9759
L1D-Morteza_fill_l2_prefetches : 0

L1I TOTAL     ACCESS:   13759513  HIT:   11952021  MISS:    1807492
L1I LOAD      ACCESS:    8648588  HIT:    8240570  MISS:     408018
L1I RFO       ACCESS:          0  HIT:          0  MISS:          0
L1I PREFETCH  ACCESS:    5110925  HIT:    3711451  MISS:    1399474
L1I WRITEBACK ACCESS:          0  HIT:          0  MISS:          0
L1I PREFETCH  REQUESTED:    5484274  ISSUED:    5459481  USEFUL:     946899  USELESS:     452641
L1I AVERAGE MISS LATENCY: 28.9409 cycles
L1I

SHEET
L1I-total_access : 13759513
L1I-total_hit : 11952021
L1I-total_miss : 1807492
L1I-load_access : 8648588
L1I-load_hit : 8240570
L1I-load_miss : 408018
L1I-rfo_access : 0
L1I-rfo_hit : 0
L1I-rfo_miss : 0
L1I-prefetch_access : 5110925
L1I-prefetch_hit : 3711451
L1I-prefetch_miss : 1399474
L1I-writeback_access : 0
L1I-writeback_hit : 0
L1I-writeback_miss : 0
L1I-prefetch_requested : 5484274
L1I-prefetch_issued : 5459481
L1I-prefetch_useful : 946899
L1I-prefetch_useless : 452641
L1I-Avg_miss_latency : 28.9409
L1I-Morteza_fill_l2_prefetches : 0

L2C TOTAL     ACCESS:    3667630  HIT:    2404691  MISS:    1262939
L2C LOAD      ACCESS:     738905  HIT:     358478  MISS:     380427
L2C RFO       ACCESS:      80815  HIT:      30942  MISS:      49873
L2C PREFETCH  ACCESS:    2572381  HIT:    1741355  MISS:     831026
L2C WRITEBACK ACCESS:     275529  HIT:     273916  MISS:       1613
L2C PREFETCH  REQUESTED:    3489345  ISSUED:    3485613  USEFUL:      53111  USELESS:     777482
L2C AVERAGE MISS LATENCY: 44.7598 cycles
L2C

SHEET
L2C-total_access : 3667630
L2C-total_hit : 2404691
L2C-total_miss : 1262939
L2C-load_access : 738905
L2C-load_hit : 358478
L2C-load_miss : 380427
L2C-rfo_access : 80815
L2C-rfo_hit : 30942
L2C-rfo_miss : 49873
L2C-prefetch_access : 2572381
L2C-prefetch_hit : 1741355
L2C-prefetch_miss : 831026
L2C-writeback_access : 275529
L2C-writeback_hit : 273916
L2C-writeback_miss : 1613
L2C-prefetch_requested : 3489345
L2C-prefetch_issued : 3485613
L2C-prefetch_useful : 53111
L2C-prefetch_useless : 777482
L2C-Avg_miss_latency : 44.7598
L2C-Morteza_fill_l2_prefetches : 540646

LLC TOTAL     ACCESS:    2467869  HIT:    2322380  MISS:     145489
LLC LOAD      ACCESS:     379135  HIT:     356004  MISS:      23131
LLC RFO       ACCESS:      49863  HIT:      39703  MISS:      10160
LLC PREFETCH  ACCESS:    1871792  HIT:    1759918  MISS:     111874
LLC WRITEBACK ACCESS:     167079  HIT:     166755  MISS:        324
LLC PREFETCH  REQUESTED:          0  ISSUED:          0  USEFUL:      12507  USELESS:      98747
LLC AVERAGE MISS LATENCY: 169.628 cycles
LLC

SHEET
LLC-total_access : 2467869
LLC-total_hit : 2322380
LLC-total_miss : 145489
LLC-load_access : 379135
LLC-load_hit : 356004
LLC-load_miss : 23131
LLC-rfo_access : 49863
LLC-rfo_hit : 39703
LLC-rfo_miss : 10160
LLC-prefetch_access : 1871792
LLC-prefetch_hit : 1759918
LLC-prefetch_miss : 111874
LLC-writeback_access : 167079
LLC-writeback_hit : 166755
LLC-writeback_miss : 324
LLC-prefetch_requested : 0
LLC-prefetch_issued : 0
LLC-prefetch_useful : 12507
LLC-prefetch_useless : 98747
LLC-Avg_miss_latency : 169.628
LLC-Morteza_fill_l2_prefetches : 1038945

Major fault: 0 Minor fault: 5596



Printing Logs
statHeadFound: 464510
statHeadMissing: 656142
statStreamBufferHit: 11030321
statPrefetchEntryFound: 3082324
statCompactorMatch: 10279143
statStreamTrackerLookup: 12150973
statRecord: 1871830
statGetPointer: 1120652
statEnqueuePrefetch: 10883903
statPrefetchQueueIsFull: 3394
StreamBufferHitRate: 0.907773
Regions' size: 3674
next_region_correct: 1532009
next_region_wrong: 336129
next_region_correct_prediction: 0.820073
statStreamBufferLookups: 874870056
statL1iLookups: 87071224
statCompactorLookups: 437435028
morteza: start

SHEET
mana_table_access_counter : 4957530
hobp_table_access_counter : 15055659
sab_access_counter : 14112645
srq_access_counter : 12634832

morteza: end
CPU 0 L1D next line prefetcher final stats

DRAM Statistics
 CHANNEL 0
 RQ ROW_BUFFER_HIT:      22609  ROW_BUFFER_MISS:     122547
 DBUS_CONGESTED:      66152
 WQ ROW_BUFFER_HIT:      10971  ROW_BUFFER_MISS:      49672  FULL:          0

 AVG_CONGESTED_CYCLE: 5

CPU 0 Branch Prediction Accuracy: 99.4607% MPKI: 1.00288 Average ROB Occupancy at Mispredict: 105.782

Branch types
NOT_BRANCH: 40701017 81.402%
BRANCH_DIRECT_JUMP: 469809 0.939618%
BRANCH_INDIRECT: 153732 0.307464%
BRANCH_CONDITIONAL: 6944071 13.8881%
BRANCH_DIRECT_CALL: 679878 1.35976%
BRANCH_INDIRECT_CALL: 168745 0.33749%
BRANCH_RETURN: 882492 1.76498%
BRANCH_OTHER: 0 0%

