Initialize SIGNATURE TABLE
ST_SET: 1
ST_WAY: 256
ST_TAG_BIT: 16
ST_TAG_MASK: ffff

Initialize PATTERN TABLE
PT_SET: 512
PT_WAY: 4
SIG_DELTA_BIT: 7
C_SIG_BIT: 4
C_DELTA_BIT: 4

Initialize PREFETCH FILTER
FILTER_SET: 1024
MANA initialize 
tds: 2 tdm: 2
size MANA SINGLE: 15.5 KB
size MANA NULTIPLE: 0 KB
size HOBPT: 0.703125 KB
size SRQ: 0.14502 KB
size SABs: 0.290039 KB
size prefetch queue: 0.453125 KB
total: 17.0913 KB

*** ChampSim Multicore Out-of-Order Simulator ***

Warmup Instructions: 50000000
Simulation Instructions: 50000000
Number of CPUs: 1
LLC sets: 2048
LLC ways: 16
Off-chip DRAM Size: 4096 MB Channels: 1 Width: 64-bit Data Rate: 3200 MT/s

CPU 0 runs /home/mbaradaran/ChampSim/dpc3_traces/server_031.champsimtrace.xz
CPU 0 L1D next line prefetcher
Heartbeat CPU 0 instructions: 10000003 cycles: 3525475 heartbeat IPC: 2.8365 cumulative IPC: 2.8365 (Simulation time: 0 hr 1 min 28 sec) 
Heartbeat CPU 0 instructions: 20000002 cycles: 7049762 heartbeat IPC: 2.83745 cumulative IPC: 2.83698 (Simulation time: 0 hr 2 min 51 sec) 
Heartbeat CPU 0 instructions: 30000002 cycles: 10574168 heartbeat IPC: 2.83736 cumulative IPC: 2.8371 (Simulation time: 0 hr 4 min 13 sec) 
Heartbeat CPU 0 instructions: 40000003 cycles: 14094839 heartbeat IPC: 2.84037 cumulative IPC: 2.83792 (Simulation time: 0 hr 5 min 34 sec) 
Heartbeat CPU 0 instructions: 50000001 cycles: 17617194 heartbeat IPC: 2.83901 cumulative IPC: 2.83814 (Simulation time: 0 hr 6 min 55 sec) 

Warmup complete CPU 0 instructions: 50000001 cycles: 17617194 (Simulation time: 0 hr 6 min 55 sec) 

Heartbeat CPU 0 instructions: 60000001 cycles: 25483907 heartbeat IPC: 1.27118 cumulative IPC: 1.27118 (Simulation time: 0 hr 8 min 22 sec) 
Heartbeat CPU 0 instructions: 70000002 cycles: 33420161 heartbeat IPC: 1.26004 cumulative IPC: 1.26559 (Simulation time: 0 hr 9 min 48 sec) 
*** Reached end of trace for Core: 0 Repeating trace: /home/mbaradaran/ChampSim/dpc3_traces/server_031.champsimtrace.xz
Heartbeat CPU 0 instructions: 80000000 cycles: 41173586 heartbeat IPC: 1.28975 cumulative IPC: 1.27354 (Simulation time: 0 hr 11 min 9 sec) 
Heartbeat CPU 0 instructions: 90000003 cycles: 48986182 heartbeat IPC: 1.27998 cumulative IPC: 1.27514 (Simulation time: 0 hr 12 min 38 sec) 
Heartbeat CPU 0 instructions: 100000000 cycles: 56761869 heartbeat IPC: 1.28606 cumulative IPC: 1.27731 (Simulation time: 0 hr 14 min 5 sec) 
Finished CPU 0 instructions: 50000000 cycles: 39144677 cumulative IPC: 1.27731 (Simulation time: 0 hr 14 min 5 sec) 

ChampSim completed all CPUs

Region of Interest Statistics

CPU 0 cumulative IPC: 1.27731 instructions: 50000000 cycles: 39144677

SHEET
IPC : 1.27731

L1D TOTAL     ACCESS:   19947452  HIT:   18042961  MISS:    1904491
L1D LOAD      ACCESS:    6972681  HIT:    6100524  MISS:     872157
L1D RFO       ACCESS:    6338523  HIT:    6046735  MISS:     291788
L1D PREFETCH  ACCESS:    6636248  HIT:    5895702  MISS:     740546
L1D WRITEBACK ACCESS:          0  HIT:          0  MISS:          0
L1D PREFETCH  REQUESTED:    7033453  ISSUED:    6931376  USEFUL:     175120  USELESS:     565428
L1D AVERAGE MISS LATENCY: 22.2805 cycles
L1D

SHEET
L1D-total_access : 19947452
L1D-total_hit : 18042961
L1D-total_miss : 1904491
L1D-load_access : 6972681
L1D-load_hit : 6100524
L1D-load_miss : 872157
L1D-rfo_access : 6338523
L1D-rfo_hit : 6046735
L1D-rfo_miss : 291788
L1D-prefetch_access : 6636248
L1D-prefetch_hit : 5895702
L1D-prefetch_miss : 740546
L1D-writeback_access : 0
L1D-writeback_hit : 0
L1D-writeback_miss : 0
L1D-prefetch_requested : 7033453
L1D-prefetch_issued : 6931376
L1D-prefetch_useful : 175120
L1D-prefetch_useless : 565428
L1D-Avg_miss_latency : 22.2805
L1D-Morteza_fill_l2_prefetches : 0

L1I TOTAL     ACCESS:   16383589  HIT:   12502290  MISS:    3881299
L1I LOAD      ACCESS:    9398843  HIT:    8462950  MISS:     935893
L1I RFO       ACCESS:          0  HIT:          0  MISS:          0
L1I PREFETCH  ACCESS:    6984746  HIT:    4039340  MISS:    2945406
L1I WRITEBACK ACCESS:          0  HIT:          0  MISS:          0
L1I PREFETCH  REQUESTED:    7852371  ISSUED:    7847256  USEFUL:    2132860  USELESS:     812523
L1I AVERAGE MISS LATENCY: 15.6067 cycles
L1I

SHEET
L1I-total_access : 16383589
L1I-total_hit : 12502290
L1I-total_miss : 3881299
L1I-load_access : 9398843
L1I-load_hit : 8462950
L1I-load_miss : 935893
L1I-rfo_access : 0
L1I-rfo_hit : 0
L1I-rfo_miss : 0
L1I-prefetch_access : 6984746
L1I-prefetch_hit : 4039340
L1I-prefetch_miss : 2945406
L1I-writeback_access : 0
L1I-writeback_hit : 0
L1I-writeback_miss : 0
L1I-prefetch_requested : 7852371
L1I-prefetch_issued : 7847256
L1I-prefetch_useful : 2132860
L1I-prefetch_useless : 812523
L1I-Avg_miss_latency : 15.6067
L1I-Morteza_fill_l2_prefetches : 0

L2C TOTAL     ACCESS:    8149771  HIT:    7588458  MISS:     561313
L2C LOAD      ACCESS:    1429463  HIT:    1269449  MISS:     160014
L2C RFO       ACCESS:     289805  HIT:     249223  MISS:      40582
L2C PREFETCH  ACCESS:    5813743  HIT:    5454061  MISS:     359682
L2C WRITEBACK ACCESS:     616760  HIT:     615725  MISS:       1035
L2C PREFETCH  REQUESTED:    7542842  ISSUED:    7503710  USEFUL:      12981  USELESS:     345974
L2C AVERAGE MISS LATENCY: 46.4651 cycles
L2C

SHEET
L2C-total_access : 8149771
L2C-total_hit : 7588458
L2C-total_miss : 561313
L2C-load_access : 1429463
L2C-load_hit : 1269449
L2C-load_miss : 160014
L2C-rfo_access : 289805
L2C-rfo_hit : 249223
L2C-rfo_miss : 40582
L2C-prefetch_access : 5813743
L2C-prefetch_hit : 5454061
L2C-prefetch_miss : 359682
L2C-writeback_access : 616760
L2C-writeback_hit : 615725
L2C-writeback_miss : 1035
L2C-prefetch_requested : 7542842
L2C-prefetch_issued : 7503710
L2C-prefetch_useful : 12981
L2C-prefetch_useless : 345974
L2C-Avg_miss_latency : 46.4651
L2C-Morteza_fill_l2_prefetches : 1783589

LLC TOTAL     ACCESS:    2992792  HIT:    2899875  MISS:      92917
LLC LOAD      ACCESS:     159905  HIT:     140660  MISS:      19245
LLC RFO       ACCESS:      40552  HIT:      36206  MISS:       4346
LLC PREFETCH  ACCESS:    2717201  HIT:    2648544  MISS:      68657
LLC WRITEBACK ACCESS:      75134  HIT:      74465  MISS:        669
LLC PREFETCH  REQUESTED:          0  ISSUED:          0  USEFUL:       3262  USELESS:      64207
LLC AVERAGE MISS LATENCY: 162.407 cycles
LLC

SHEET
LLC-total_access : 2992792
LLC-total_hit : 2899875
LLC-total_miss : 92917
LLC-load_access : 159905
LLC-load_hit : 140660
LLC-load_miss : 19245
LLC-rfo_access : 40552
LLC-rfo_hit : 36206
LLC-rfo_miss : 4346
LLC-prefetch_access : 2717201
LLC-prefetch_hit : 2648544
LLC-prefetch_miss : 68657
LLC-writeback_access : 75134
LLC-writeback_hit : 74465
LLC-writeback_miss : 669
LLC-prefetch_requested : 0
LLC-prefetch_issued : 0
LLC-prefetch_useful : 3262
LLC-prefetch_useless : 64207
LLC-Avg_miss_latency : 162.407
LLC-Morteza_fill_l2_prefetches : 2324419

Major fault: 0 Minor fault: 6041



Printing Logs
statHeadFound: 1037641
statHeadMissing: 968370
statStreamBufferHit: 12376318
statPrefetchEntryFound: 5324026
statCompactorMatch: 11618954
statStreamTrackerLookup: 14382329
statRecord: 2763375
statGetPointer: 2006011
statEnqueuePrefetch: 15666412
statPrefetchQueueIsFull: 8
StreamBufferHitRate: 0.860523
Regions' size: 2019
next_region_correct: 1941585
next_region_wrong: 819753
next_region_correct_prediction: 0.703132
statStreamBufferLookups: 1035527688
statL1iLookups: 125331296
statCompactorLookups: 517763844
morteza: start

SHEET
mana_table_access_counter : 8087391
hobp_table_access_counter : 24401578
sab_access_counter : 17700344
srq_access_counter : 15830172

morteza: end
CPU 0 L1D next line prefetcher final stats

DRAM Statistics
 CHANNEL 0
 RQ ROW_BUFFER_HIT:      25170  ROW_BUFFER_MISS:      67076
 DBUS_CONGESTED:      41845
 WQ ROW_BUFFER_HIT:        896  ROW_BUFFER_MISS:       5431  FULL:          0

 AVG_CONGESTED_CYCLE: 5

CPU 0 Branch Prediction Accuracy: 99.6894% MPKI: 0.58048 Average ROB Occupancy at Mispredict: 128.012

Branch types
NOT_BRANCH: 40655599 81.3112%
BRANCH_DIRECT_JUMP: 546484 1.09297%
BRANCH_INDIRECT: 172433 0.344866%
BRANCH_CONDITIONAL: 6207577 12.4152%
BRANCH_DIRECT_CALL: 1018498 2.037%
BRANCH_INDIRECT_CALL: 190373 0.380746%
BRANCH_RETURN: 1208856 2.41771%
BRANCH_OTHER: 0 0%

