Initialize SIGNATURE TABLE
ST_SET: 1
ST_WAY: 256
ST_TAG_BIT: 16
ST_TAG_MASK: ffff

Initialize PATTERN TABLE
PT_SET: 512
PT_WAY: 4
SIG_DELTA_BIT: 7
C_SIG_BIT: 4
C_DELTA_BIT: 4

Initialize PREFETCH FILTER
FILTER_SET: 1024
MANA initialize 
tds: 2 tdm: 2
size MANA SINGLE: 15.5 KB
size MANA NULTIPLE: 0 KB
size HOBPT: 0.703125 KB
size SRQ: 0.14502 KB
size SABs: 0.290039 KB
size prefetch queue: 0.453125 KB
total: 17.0913 KB

*** ChampSim Multicore Out-of-Order Simulator ***

Warmup Instructions: 50000000
Simulation Instructions: 50000000
Number of CPUs: 1
LLC sets: 2048
LLC ways: 16
Off-chip DRAM Size: 4096 MB Channels: 1 Width: 64-bit Data Rate: 3200 MT/s

CPU 0 runs /home/mbaradaran/ChampSim/dpc3_traces/server_017.champsimtrace.xz
CPU 0 L1D next line prefetcher
Heartbeat CPU 0 instructions: 10000001 cycles: 3622881 heartbeat IPC: 2.76023 cumulative IPC: 2.76023 (Simulation time: 0 hr 1 min 35 sec) 
Heartbeat CPU 0 instructions: 20000000 cycles: 7243416 heartbeat IPC: 2.76202 cumulative IPC: 2.76113 (Simulation time: 0 hr 3 min 0 sec) 
Heartbeat CPU 0 instructions: 30000002 cycles: 10870507 heartbeat IPC: 2.75703 cumulative IPC: 2.75976 (Simulation time: 0 hr 4 min 31 sec) 
Heartbeat CPU 0 instructions: 40000000 cycles: 14492644 heartbeat IPC: 2.7608 cumulative IPC: 2.76002 (Simulation time: 0 hr 5 min 50 sec) 
Heartbeat CPU 0 instructions: 50000001 cycles: 18125849 heartbeat IPC: 2.75239 cumulative IPC: 2.75849 (Simulation time: 0 hr 7 min 10 sec) 

Warmup complete CPU 0 instructions: 50000001 cycles: 18125849 (Simulation time: 0 hr 7 min 10 sec) 

Heartbeat CPU 0 instructions: 60000002 cycles: 35753664 heartbeat IPC: 0.567285 cumulative IPC: 0.567285 (Simulation time: 0 hr 9 min 5 sec) 
Heartbeat CPU 0 instructions: 70000002 cycles: 53625803 heartbeat IPC: 0.55953 cumulative IPC: 0.563381 (Simulation time: 0 hr 10 min 53 sec) 
Heartbeat CPU 0 instructions: 80000000 cycles: 71228196 heartbeat IPC: 0.568104 cumulative IPC: 0.564947 (Simulation time: 0 hr 12 min 48 sec) 
Heartbeat CPU 0 instructions: 90000002 cycles: 94705520 heartbeat IPC: 0.425943 cumulative IPC: 0.522332 (Simulation time: 0 hr 14 min 46 sec) 
Heartbeat CPU 0 instructions: 100000003 cycles: 114899099 heartbeat IPC: 0.495207 cumulative IPC: 0.516672 (Simulation time: 0 hr 16 min 39 sec) 
Finished CPU 0 instructions: 50000002 cycles: 96773250 cumulative IPC: 0.516672 (Simulation time: 0 hr 16 min 39 sec) 

ChampSim completed all CPUs

Region of Interest Statistics

CPU 0 cumulative IPC: 0.516672 instructions: 50000002 cycles: 96773250

SHEET
IPC : 0.516672

L1D TOTAL     ACCESS:   18422620  HIT:   16256990  MISS:    2165630
L1D LOAD      ACCESS:    7045838  HIT:    6297646  MISS:     748192
L1D RFO       ACCESS:    5524351  HIT:    4665280  MISS:     859071
L1D PREFETCH  ACCESS:    5852431  HIT:    5294064  MISS:     558367
L1D WRITEBACK ACCESS:          0  HIT:          0  MISS:          0
L1D PREFETCH  REQUESTED:    7083294  ISSUED:    6892853  USEFUL:     195937  USELESS:     362491
L1D AVERAGE MISS LATENCY: 173.201 cycles
L1D

SHEET
L1D-total_access : 18422620
L1D-total_hit : 16256990
L1D-total_miss : 2165630
L1D-load_access : 7045838
L1D-load_hit : 6297646
L1D-load_miss : 748192
L1D-rfo_access : 5524351
L1D-rfo_hit : 4665280
L1D-rfo_miss : 859071
L1D-prefetch_access : 5852431
L1D-prefetch_hit : 5294064
L1D-prefetch_miss : 558367
L1D-writeback_access : 0
L1D-writeback_hit : 0
L1D-writeback_miss : 0
L1D-prefetch_requested : 7083294
L1D-prefetch_issued : 6892853
L1D-prefetch_useful : 195937
L1D-prefetch_useless : 362491
L1D-Avg_miss_latency : 173.201
L1D-Morteza_fill_l2_prefetches : 0

L1I TOTAL     ACCESS:   14550669  HIT:   12377830  MISS:    2172839
L1I LOAD      ACCESS:    9801644  HIT:    9428945  MISS:     372699
L1I RFO       ACCESS:          0  HIT:          0  MISS:          0
L1I PREFETCH  ACCESS:    4749025  HIT:    2948885  MISS:    1800140
L1I WRITEBACK ACCESS:          0  HIT:          0  MISS:          0
L1I PREFETCH  REQUESTED:    5109856  ISSUED:    5109791  USEFUL:    1729571  USELESS:      70582
L1I AVERAGE MISS LATENCY: 16.5067 cycles
L1I

SHEET
L1I-total_access : 14550669
L1I-total_hit : 12377830
L1I-total_miss : 2172839
L1I-load_access : 9801644
L1I-load_hit : 9428945
L1I-load_miss : 372699
L1I-rfo_access : 0
L1I-rfo_hit : 0
L1I-rfo_miss : 0
L1I-prefetch_access : 4749025
L1I-prefetch_hit : 2948885
L1I-prefetch_miss : 1800140
L1I-writeback_access : 0
L1I-writeback_hit : 0
L1I-writeback_miss : 0
L1I-prefetch_requested : 5109856
L1I-prefetch_issued : 5109791
L1I-prefetch_useful : 1729571
L1I-prefetch_useless : 70582
L1I-Avg_miss_latency : 16.5067
L1I-Morteza_fill_l2_prefetches : 0

L2C TOTAL     ACCESS:    6311625  HIT:    4465761  MISS:    1845864
L2C LOAD      ACCESS:     680739  HIT:     344604  MISS:     336135
L2C RFO       ACCESS:     858665  HIT:      17414  MISS:     841251
L2C PREFETCH  ACCESS:    3649371  HIT:    2982686  MISS:     666685
L2C WRITEBACK ACCESS:    1122850  HIT:    1121057  MISS:       1793
L2C PREFETCH  REQUESTED:    3884396  ISSUED:    3881194  USEFUL:      26419  USELESS:     640826
L2C AVERAGE MISS LATENCY: 207.335 cycles
L2C

SHEET
L2C-total_access : 6311625
L2C-total_hit : 4465761
L2C-total_miss : 1845864
L2C-load_access : 680739
L2C-load_hit : 344604
L2C-load_miss : 336135
L2C-rfo_access : 858665
L2C-rfo_hit : 17414
L2C-rfo_miss : 841251
L2C-prefetch_access : 3649371
L2C-prefetch_hit : 2982686
L2C-prefetch_miss : 666685
L2C-writeback_access : 1122850
L2C-writeback_hit : 1121057
L2C-writeback_miss : 1793
L2C-prefetch_requested : 3884396
L2C-prefetch_issued : 3881194
L2C-prefetch_useful : 26419
L2C-prefetch_useless : 640826
L2C-Avg_miss_latency : 207.335
L2C-Morteza_fill_l2_prefetches : 846186

LLC TOTAL     ACCESS:    4113042  HIT:    2536072  MISS:    1576970
LLC LOAD      ACCESS:     336046  HIT:     177916  MISS:     158130
LLC RFO       ACCESS:     841216  HIT:     123348  MISS:     717868
LLC PREFETCH  ACCESS:    1874519  HIT:    1176064  MISS:     698455
LLC WRITEBACK ACCESS:    1061261  HIT:    1058744  MISS:       2517
LLC PREFETCH  REQUESTED:          0  ISSUED:          0  USEFUL:      50175  USELESS:     647358
LLC AVERAGE MISS LATENCY: 258.742 cycles
LLC

SHEET
LLC-total_access : 4113042
LLC-total_hit : 2536072
LLC-total_miss : 1576970
LLC-load_access : 336046
LLC-load_hit : 177916
LLC-load_miss : 158130
LLC-rfo_access : 841216
LLC-rfo_hit : 123348
LLC-rfo_miss : 717868
LLC-prefetch_access : 1874519
LLC-prefetch_hit : 1176064
LLC-prefetch_miss : 698455
LLC-writeback_access : 1061261
LLC-writeback_hit : 1058744
LLC-writeback_miss : 2517
LLC-prefetch_requested : 0
LLC-prefetch_issued : 0
LLC-prefetch_useful : 50175
LLC-prefetch_useless : 647358
LLC-Avg_miss_latency : 258.742
LLC-Morteza_fill_l2_prefetches : 875033

Major fault: 0 Minor fault: 24694



Printing Logs
statHeadFound: 421662
statHeadMissing: 494978
statStreamBufferHit: 12309143
statPrefetchEntryFound: 3342425
statCompactorMatch: 10997163
statStreamTrackerLookup: 13225783
statRecord: 2228620
statGetPointer: 916640
statEnqueuePrefetch: 10697669
statPrefetchQueueIsFull: 0
StreamBufferHitRate: 0.930693
Regions' size: 1198
next_region_correct: 1876503
next_region_wrong: 350901
next_region_correct_prediction: 0.842462
statStreamBufferLookups: 952256376
statL1iLookups: 85581352
statCompactorLookups: 476128188
morteza: start

SHEET
mana_table_access_counter : 5571027
hobp_table_access_counter : 15923425
sab_access_counter : 15651568
srq_access_counter : 14366078

morteza: end
CPU 0 L1D next line prefetcher final stats

DRAM Statistics
 CHANNEL 0
 RQ ROW_BUFFER_HIT:     378342  ROW_BUFFER_MISS:    1195956
 DBUS_CONGESTED:    1510049
 WQ ROW_BUFFER_HIT:     254952  ROW_BUFFER_MISS:     622124  FULL:          0

 AVG_CONGESTED_CYCLE: 6

CPU 0 Branch Prediction Accuracy: 99.2833% MPKI: 1.20568 Average ROB Occupancy at Mispredict: 180.11

Branch types
NOT_BRANCH: 41588350 83.1767%
BRANCH_DIRECT_JUMP: 464501 0.929002%
BRANCH_INDIRECT: 45704 0.091408%
BRANCH_CONDITIONAL: 6147408 12.2948%
BRANCH_DIRECT_CALL: 675450 1.3509%
BRANCH_INDIRECT_CALL: 201532 0.403064%
BRANCH_RETURN: 876985 1.75397%
BRANCH_OTHER: 0 0%

