Initialize SIGNATURE TABLE
ST_SET: 1
ST_WAY: 256
ST_TAG_BIT: 16
ST_TAG_MASK: ffff

Initialize PATTERN TABLE
PT_SET: 512
PT_WAY: 4
SIG_DELTA_BIT: 7
C_SIG_BIT: 4
C_DELTA_BIT: 4

Initialize PREFETCH FILTER
FILTER_SET: 1024
MANA initialize 
tds: 2 tdm: 2
size MANA SINGLE: 15.5 KB
size MANA NULTIPLE: 0 KB
size HOBPT: 0.703125 KB
size SRQ: 0.14502 KB
size SABs: 0.290039 KB
size prefetch queue: 0.453125 KB
total: 17.0913 KB

*** ChampSim Multicore Out-of-Order Simulator ***

Warmup Instructions: 50000000
Simulation Instructions: 50000000
Number of CPUs: 1
LLC sets: 2048
LLC ways: 16
Off-chip DRAM Size: 4096 MB Channels: 1 Width: 64-bit Data Rate: 3200 MT/s

CPU 0 runs /home/mbaradaran/ChampSim/dpc3_traces/server_024.champsimtrace.xz
CPU 0 L1D next line prefetcher
Heartbeat CPU 0 instructions: 10000000 cycles: 3501310 heartbeat IPC: 2.85607 cumulative IPC: 2.85607 (Simulation time: 0 hr 1 min 19 sec) 
Heartbeat CPU 0 instructions: 20000002 cycles: 6995214 heartbeat IPC: 2.86213 cumulative IPC: 2.8591 (Simulation time: 0 hr 2 min 44 sec) 
Heartbeat CPU 0 instructions: 30000000 cycles: 10499638 heartbeat IPC: 2.85354 cumulative IPC: 2.85724 (Simulation time: 0 hr 4 min 4 sec) 
Heartbeat CPU 0 instructions: 40000000 cycles: 14001461 heartbeat IPC: 2.85566 cumulative IPC: 2.85684 (Simulation time: 0 hr 5 min 39 sec) 
Heartbeat CPU 0 instructions: 50000001 cycles: 17493042 heartbeat IPC: 2.86403 cumulative IPC: 2.85828 (Simulation time: 0 hr 7 min 2 sec) 

Warmup complete CPU 0 instructions: 50000001 cycles: 17493042 (Simulation time: 0 hr 7 min 2 sec) 

Heartbeat CPU 0 instructions: 60000003 cycles: 24713562 heartbeat IPC: 1.38494 cumulative IPC: 1.38494 (Simulation time: 0 hr 8 min 19 sec) 
Heartbeat CPU 0 instructions: 70000000 cycles: 31960662 heartbeat IPC: 1.37986 cumulative IPC: 1.3824 (Simulation time: 0 hr 9 min 42 sec) 
*** Reached end of trace for Core: 0 Repeating trace: /home/mbaradaran/ChampSim/dpc3_traces/server_024.champsimtrace.xz
Heartbeat CPU 0 instructions: 80000001 cycles: 39170990 heartbeat IPC: 1.3869 cumulative IPC: 1.38389 (Simulation time: 0 hr 11 min 12 sec) 
Heartbeat CPU 0 instructions: 90000003 cycles: 46438994 heartbeat IPC: 1.37589 cumulative IPC: 1.38189 (Simulation time: 0 hr 12 min 39 sec) 
Heartbeat CPU 0 instructions: 100000002 cycles: 53684043 heartbeat IPC: 1.38025 cumulative IPC: 1.38156 (Simulation time: 0 hr 13 min 59 sec) 
Finished CPU 0 instructions: 50000001 cycles: 36191001 cumulative IPC: 1.38156 (Simulation time: 0 hr 13 min 59 sec) 

ChampSim completed all CPUs

Region of Interest Statistics

CPU 0 cumulative IPC: 1.38156 instructions: 50000001 cycles: 36191001

SHEET
IPC : 1.38156

L1D TOTAL     ACCESS:   20192693  HIT:   18674773  MISS:    1517920
L1D LOAD      ACCESS:    7178854  HIT:    6498958  MISS:     679896
L1D RFO       ACCESS:    6161750  HIT:    5887665  MISS:     274085
L1D PREFETCH  ACCESS:    6852089  HIT:    6288150  MISS:     563939
L1D WRITEBACK ACCESS:          0  HIT:          0  MISS:          0
L1D PREFETCH  REQUESTED:    7232796  ISSUED:    7115705  USEFUL:     136471  USELESS:     427472
L1D AVERAGE MISS LATENCY: 24.8235 cycles
L1D

SHEET
L1D-total_access : 20192693
L1D-total_hit : 18674773
L1D-total_miss : 1517920
L1D-load_access : 7178854
L1D-load_hit : 6498958
L1D-load_miss : 679896
L1D-rfo_access : 6161750
L1D-rfo_hit : 5887665
L1D-rfo_miss : 274085
L1D-prefetch_access : 6852089
L1D-prefetch_hit : 6288150
L1D-prefetch_miss : 563939
L1D-writeback_access : 0
L1D-writeback_hit : 0
L1D-writeback_miss : 0
L1D-prefetch_requested : 7232796
L1D-prefetch_issued : 7115705
L1D-prefetch_useful : 136471
L1D-prefetch_useless : 427472
L1D-Avg_miss_latency : 24.8235
L1D-Morteza_fill_l2_prefetches : 0

L1I TOTAL     ACCESS:   15635987  HIT:   12271516  MISS:    3364471
L1I LOAD      ACCESS:    9098332  HIT:    8296025  MISS:     802307
L1I RFO       ACCESS:          0  HIT:          0  MISS:          0
L1I PREFETCH  ACCESS:    6537655  HIT:    3975491  MISS:    2562164
L1I WRITEBACK ACCESS:          0  HIT:          0  MISS:          0
L1I PREFETCH  REQUESTED:    7283713  ISSUED:    7280206  USEFUL:    1769167  USELESS:     792996
L1I AVERAGE MISS LATENCY: 16.3483 cycles
L1I

SHEET
L1I-total_access : 15635987
L1I-total_hit : 12271516
L1I-total_miss : 3364471
L1I-load_access : 9098332
L1I-load_hit : 8296025
L1I-load_miss : 802307
L1I-rfo_access : 0
L1I-rfo_hit : 0
L1I-rfo_miss : 0
L1I-prefetch_access : 6537655
L1I-prefetch_hit : 3975491
L1I-prefetch_miss : 2562164
L1I-writeback_access : 0
L1I-writeback_hit : 0
L1I-writeback_miss : 0
L1I-prefetch_requested : 7283713
L1I-prefetch_issued : 7280206
L1I-prefetch_useful : 1769167
L1I-prefetch_useless : 792996
L1I-Avg_miss_latency : 16.3483
L1I-Morteza_fill_l2_prefetches : 0

L2C TOTAL     ACCESS:    6621044  HIT:    5964638  MISS:     656406
L2C LOAD      ACCESS:    1162520  HIT:     981754  MISS:     180766
L2C RFO       ACCESS:     272309  HIT:     186560  MISS:      85749
L2C PREFETCH  ACCESS:    4666000  HIT:    4279391  MISS:     386609
L2C WRITEBACK ACCESS:     520215  HIT:     516933  MISS:       3282
L2C PREFETCH  REQUESTED:    5529368  ISSUED:    5523491  USEFUL:      27659  USELESS:     358098
L2C AVERAGE MISS LATENCY: 44.6017 cycles
L2C

SHEET
L2C-total_access : 6621044
L2C-total_hit : 5964638
L2C-total_miss : 656406
L2C-load_access : 1162520
L2C-load_hit : 981754
L2C-load_miss : 180766
L2C-rfo_access : 272309
L2C-rfo_hit : 186560
L2C-rfo_miss : 85749
L2C-prefetch_access : 4666000
L2C-prefetch_hit : 4279391
L2C-prefetch_miss : 386609
L2C-writeback_access : 520215
L2C-writeback_hit : 516933
L2C-writeback_miss : 3282
L2C-prefetch_requested : 5529368
L2C-prefetch_issued : 5523491
L2C-prefetch_useful : 27659
L2C-prefetch_useless : 358098
L2C-Avg_miss_latency : 44.6017
L2C-Morteza_fill_l2_prefetches : 1253814

LLC TOTAL     ACCESS:    2235533  HIT:    2182536  MISS:      52997
LLC LOAD      ACCESS:     180546  HIT:     174783  MISS:       5763
LLC RFO       ACCESS:      85735  HIT:      63611  MISS:      22124
LLC PREFETCH  ACCESS:    1831815  HIT:    1806994  MISS:      24821
LLC WRITEBACK ACCESS:     137437  HIT:     137148  MISS:        289
LLC PREFETCH  REQUESTED:          0  ISSUED:          0  USEFUL:       2273  USELESS:      22285
LLC AVERAGE MISS LATENCY: 196.382 cycles
LLC

SHEET
LLC-total_access : 2235533
LLC-total_hit : 2182536
LLC-total_miss : 52997
LLC-load_access : 180546
LLC-load_hit : 174783
LLC-load_miss : 5763
LLC-rfo_access : 85735
LLC-rfo_hit : 63611
LLC-rfo_miss : 22124
LLC-prefetch_access : 1831815
LLC-prefetch_hit : 1806994
LLC-prefetch_miss : 24821
LLC-writeback_access : 137437
LLC-writeback_hit : 137148
LLC-writeback_miss : 289
LLC-prefetch_requested : 0
LLC-prefetch_issued : 0
LLC-prefetch_useful : 2273
LLC-prefetch_useless : 22285
LLC-Avg_miss_latency : 196.382
LLC-Morteza_fill_l2_prefetches : 1450708

Major fault: 0 Minor fault: 2362



Printing Logs
statHeadFound: 997033
statHeadMissing: 1167739
statStreamBufferHit: 11933732
statPrefetchEntryFound: 4854215
statCompactorMatch: 11752263
statStreamTrackerLookup: 14098504
statRecord: 2346241
statGetPointer: 2164772
statEnqueuePrefetch: 14556025
statPrefetchQueueIsFull: 13
StreamBufferHitRate: 0.846454
Regions' size: 2195
next_region_correct: 1568755
next_region_wrong: 775273
next_region_correct_prediction: 0.669256
statStreamBufferLookups: 1015092288
statL1iLookups: 116448200
statCompactorLookups: 507546144
morteza: start

SHEET
mana_table_access_counter : 7200451
hobp_table_access_counter : 22898280
sab_access_counter : 16787947
srq_access_counter : 15098701

morteza: end
CPU 0 L1D next line prefetcher final stats

DRAM Statistics
 CHANNEL 0
 RQ ROW_BUFFER_HIT:      17904  ROW_BUFFER_MISS:      34800
 DBUS_CONGESTED:      38587
 WQ ROW_BUFFER_HIT:       2861  ROW_BUFFER_MISS:      23063  FULL:          0

 AVG_CONGESTED_CYCLE: 6

CPU 0 Branch Prediction Accuracy: 99.7477% MPKI: 0.46156 Average ROB Occupancy at Mispredict: 142.142

Branch types
NOT_BRANCH: 40853595 81.7072%
BRANCH_DIRECT_JUMP: 566814 1.13363%
BRANCH_INDIRECT: 197171 0.394342%
BRANCH_CONDITIONAL: 6308406 12.6168%
BRANCH_DIRECT_CALL: 876399 1.7528%
BRANCH_INDIRECT_CALL: 160491 0.320982%
BRANCH_RETURN: 1036885 2.07377%
BRANCH_OTHER: 0 0%

