Initialize SIGNATURE TABLE
ST_SET: 1
ST_WAY: 256
ST_TAG_BIT: 16
ST_TAG_MASK: ffff

Initialize PATTERN TABLE
PT_SET: 512
PT_WAY: 4
SIG_DELTA_BIT: 7
C_SIG_BIT: 4
C_DELTA_BIT: 4

Initialize PREFETCH FILTER
FILTER_SET: 1024
MANA initialize 
tds: 2 tdm: 2
size MANA SINGLE: 15.5 KB
size MANA NULTIPLE: 0 KB
size HOBPT: 0.703125 KB
size SRQ: 0.14502 KB
size SABs: 0.290039 KB
size prefetch queue: 0.453125 KB
total: 17.0913 KB

*** ChampSim Multicore Out-of-Order Simulator ***

Warmup Instructions: 50000000
Simulation Instructions: 50000000
Number of CPUs: 1
LLC sets: 2048
LLC ways: 16
Off-chip DRAM Size: 4096 MB Channels: 1 Width: 64-bit Data Rate: 3200 MT/s

CPU 0 runs /home/mbaradaran/ChampSim/dpc3_traces/server_010.champsimtrace.xz
CPU 0 L1D next line prefetcher
Heartbeat CPU 0 instructions: 10000000 cycles: 3196977 heartbeat IPC: 3.12795 cumulative IPC: 3.12795 (Simulation time: 0 hr 1 min 13 sec) 
Heartbeat CPU 0 instructions: 20000002 cycles: 6390845 heartbeat IPC: 3.131 cumulative IPC: 3.12948 (Simulation time: 0 hr 2 min 26 sec) 
Heartbeat CPU 0 instructions: 30000001 cycles: 9587778 heartbeat IPC: 3.128 cumulative IPC: 3.12898 (Simulation time: 0 hr 3 min 39 sec) 
Heartbeat CPU 0 instructions: 40000000 cycles: 12780563 heartbeat IPC: 3.13206 cumulative IPC: 3.12975 (Simulation time: 0 hr 4 min 57 sec) 
Heartbeat CPU 0 instructions: 50000003 cycles: 15979242 heartbeat IPC: 3.12629 cumulative IPC: 3.12906 (Simulation time: 0 hr 6 min 19 sec) 

Warmup complete CPU 0 instructions: 50000003 cycles: 15979242 (Simulation time: 0 hr 6 min 19 sec) 

Heartbeat CPU 0 instructions: 60000001 cycles: 23616817 heartbeat IPC: 1.30932 cumulative IPC: 1.30932 (Simulation time: 0 hr 7 min 26 sec) 
Heartbeat CPU 0 instructions: 70000000 cycles: 31383455 heartbeat IPC: 1.28756 cumulative IPC: 1.29835 (Simulation time: 0 hr 8 min 31 sec) 
Heartbeat CPU 0 instructions: 80000003 cycles: 39235409 heartbeat IPC: 1.27357 cumulative IPC: 1.28998 (Simulation time: 0 hr 9 min 47 sec) 
Heartbeat CPU 0 instructions: 90000002 cycles: 46787108 heartbeat IPC: 1.32421 cumulative IPC: 1.29837 (Simulation time: 0 hr 10 min 54 sec) 
Heartbeat CPU 0 instructions: 100000003 cycles: 67622672 heartbeat IPC: 0.479949 cumulative IPC: 0.968177 (Simulation time: 0 hr 12 min 54 sec) 
Finished CPU 0 instructions: 50000000 cycles: 51643430 cumulative IPC: 0.968177 (Simulation time: 0 hr 12 min 54 sec) 

ChampSim completed all CPUs

Region of Interest Statistics

CPU 0 cumulative IPC: 0.968177 instructions: 50000000 cycles: 51643430

SHEET
IPC : 0.968177

L1D TOTAL     ACCESS:   20112201  HIT:   16886704  MISS:    3225497
L1D LOAD      ACCESS:    7805225  HIT:    6214589  MISS:    1590636
L1D RFO       ACCESS:    4721369  HIT:    4626968  MISS:      94401
L1D PREFETCH  ACCESS:    7585607  HIT:    6045147  MISS:    1540460
L1D WRITEBACK ACCESS:          0  HIT:          0  MISS:          0
L1D PREFETCH  REQUESTED:    7839382  ISSUED:    7741125  USEFUL:     119700  USELESS:    1420731
L1D AVERAGE MISS LATENCY: 22.497 cycles
L1D

SHEET
L1D-total_access : 20112201
L1D-total_hit : 16886704
L1D-total_miss : 3225497
L1D-load_access : 7805225
L1D-load_hit : 6214589
L1D-load_miss : 1590636
L1D-rfo_access : 4721369
L1D-rfo_hit : 4626968
L1D-rfo_miss : 94401
L1D-prefetch_access : 7585607
L1D-prefetch_hit : 6045147
L1D-prefetch_miss : 1540460
L1D-writeback_access : 0
L1D-writeback_hit : 0
L1D-writeback_miss : 0
L1D-prefetch_requested : 7839382
L1D-prefetch_issued : 7741125
L1D-prefetch_useful : 119700
L1D-prefetch_useless : 1420731
L1D-Avg_miss_latency : 22.497
L1D-Morteza_fill_l2_prefetches : 0

L1I TOTAL     ACCESS:   14806362  HIT:   13215345  MISS:    1591017
L1I LOAD      ACCESS:    9883726  HIT:    9525140  MISS:     358586
L1I RFO       ACCESS:          0  HIT:          0  MISS:          0
L1I PREFETCH  ACCESS:    4922636  HIT:    3690205  MISS:    1232431
L1I WRITEBACK ACCESS:          0  HIT:          0  MISS:          0
L1I PREFETCH  REQUESTED:    5247747  ISSUED:    5227753  USEFUL:     826249  USELESS:     406200
L1I AVERAGE MISS LATENCY: 29.3957 cycles
L1I

SHEET
L1I-total_access : 14806362
L1I-total_hit : 13215345
L1I-total_miss : 1591017
L1I-load_access : 9883726
L1I-load_hit : 9525140
L1I-load_miss : 358586
L1I-rfo_access : 0
L1I-rfo_hit : 0
L1I-rfo_miss : 0
L1I-prefetch_access : 4922636
L1I-prefetch_hit : 3690205
L1I-prefetch_miss : 1232431
L1I-writeback_access : 0
L1I-writeback_hit : 0
L1I-writeback_miss : 0
L1I-prefetch_requested : 5247747
L1I-prefetch_issued : 5227753
L1I-prefetch_useful : 826249
L1I-prefetch_useless : 406200
L1I-Avg_miss_latency : 29.3957
L1I-Morteza_fill_l2_prefetches : 0

L2C TOTAL     ACCESS:    6200030  HIT:    5069822  MISS:    1130208
L2C LOAD      ACCESS:    1814361  HIT:    1473351  MISS:     341010
L2C RFO       ACCESS:      93395  HIT:      49249  MISS:      44146
L2C PREFETCH  ACCESS:    4026897  HIT:    3283006  MISS:     743891
L2C WRITEBACK ACCESS:     265377  HIT:     264216  MISS:       1161
L2C PREFETCH  REQUESTED:    6615033  ISSUED:    6610611  USEFUL:      47983  USELESS:     696517
L2C AVERAGE MISS LATENCY: 44.7932 cycles
L2C

SHEET
L2C-total_access : 6200030
L2C-total_hit : 5069822
L2C-total_miss : 1130208
L2C-load_access : 1814361
L2C-load_hit : 1473351
L2C-load_miss : 341010
L2C-rfo_access : 93395
L2C-rfo_hit : 49249
L2C-rfo_miss : 44146
L2C-prefetch_access : 4026897
L2C-prefetch_hit : 3283006
L2C-prefetch_miss : 743891
L2C-writeback_access : 265377
L2C-writeback_hit : 264216
L2C-writeback_miss : 1161
L2C-prefetch_requested : 6615033
L2C-prefetch_issued : 6610611
L2C-prefetch_useful : 47983
L2C-prefetch_useless : 696517
L2C-Avg_miss_latency : 44.7932
L2C-Morteza_fill_l2_prefetches : 1115287

LLC TOTAL     ACCESS:    2515925  HIT:    2388389  MISS:     127536
LLC LOAD      ACCESS:     339681  HIT:     319670  MISS:      20011
LLC RFO       ACCESS:      44135  HIT:      35988  MISS:       8147
LLC PREFETCH  ACCESS:    1982859  HIT:    1883653  MISS:      99206
LLC WRITEBACK ACCESS:     149250  HIT:     149078  MISS:        172
LLC PREFETCH  REQUESTED:          0  ISSUED:          0  USEFUL:      11550  USELESS:      87576
LLC AVERAGE MISS LATENCY: 171.398 cycles
LLC

SHEET
LLC-total_access : 2515925
LLC-total_hit : 2388389
LLC-total_miss : 127536
LLC-load_access : 339681
LLC-load_hit : 319670
LLC-load_miss : 20011
LLC-rfo_access : 44135
LLC-rfo_hit : 35988
LLC-rfo_miss : 8147
LLC-prefetch_access : 1982859
LLC-prefetch_hit : 1883653
LLC-prefetch_miss : 99206
LLC-writeback_access : 149250
LLC-writeback_hit : 149078
LLC-writeback_miss : 172
LLC-prefetch_requested : 0
LLC-prefetch_issued : 0
LLC-prefetch_useful : 11550
LLC-prefetch_useless : 87576
LLC-Avg_miss_latency : 171.398
LLC-Morteza_fill_l2_prefetches : 1239003

Major fault: 0 Minor fault: 5593



Printing Logs
statHeadFound: 446610
statHeadMissing: 938434
statStreamBufferHit: 11573102
statPrefetchEntryFound: 3057068
statCompactorMatch: 11069429
statStreamTrackerLookup: 12958146
statRecord: 1888717
statGetPointer: 1385044
statEnqueuePrefetch: 10662218
statPrefetchQueueIsFull: 3368
StreamBufferHitRate: 0.893114
Regions' size: 3720
next_region_correct: 1566425
next_region_wrong: 318554
next_region_correct_prediction: 0.831004
statStreamBufferLookups: 932986512
statL1iLookups: 85297744
statCompactorLookups: 466493256
morteza: start

SHEET
mana_table_access_counter : 4949135
hobp_table_access_counter : 16155493
sab_access_counter : 14630170
srq_access_counter : 12890913

morteza: end
CPU 0 L1D next line prefetcher final stats

DRAM Statistics
 CHANNEL 0
 RQ ROW_BUFFER_HIT:      20472  ROW_BUFFER_MISS:     106885
 DBUS_CONGESTED:      59156
 WQ ROW_BUFFER_HIT:      10110  ROW_BUFFER_MISS:      43531  FULL:          0

 AVG_CONGESTED_CYCLE: 5

CPU 0 Branch Prediction Accuracy: 99.5528% MPKI: 0.89798 Average ROB Occupancy at Mispredict: 111.67

Branch types
NOT_BRANCH: 39958786 79.9176%
BRANCH_DIRECT_JUMP: 449946 0.899892%
BRANCH_INDIRECT: 140210 0.28042%
BRANCH_CONDITIONAL: 7679676 15.3594%
BRANCH_DIRECT_CALL: 701578 1.40316%
BRANCH_INDIRECT_CALL: 168971 0.337942%
BRANCH_RETURN: 900560 1.80112%
BRANCH_OTHER: 0 0%

