Initialize SIGNATURE TABLE
ST_SET: 1
ST_WAY: 256
ST_TAG_BIT: 16
ST_TAG_MASK: ffff

Initialize PATTERN TABLE
PT_SET: 512
PT_WAY: 4
SIG_DELTA_BIT: 7
C_SIG_BIT: 4
C_DELTA_BIT: 4

Initialize PREFETCH FILTER
FILTER_SET: 1024
MANA initialize 
tds: 2 tdm: 2
size MANA SINGLE: 15.5 KB
size MANA NULTIPLE: 0 KB
size HOBPT: 0.703125 KB
size SRQ: 0.14502 KB
size SABs: 0.290039 KB
size prefetch queue: 0.453125 KB
total: 17.0913 KB

*** ChampSim Multicore Out-of-Order Simulator ***

Warmup Instructions: 50000000
Simulation Instructions: 50000000
Number of CPUs: 1
LLC sets: 2048
LLC ways: 16
Off-chip DRAM Size: 4096 MB Channels: 1 Width: 64-bit Data Rate: 3200 MT/s

CPU 0 runs /home/mbaradaran/ChampSim/dpc3_traces/server_002.champsimtrace.xz
CPU 0 L1D next line prefetcher
Heartbeat CPU 0 instructions: 10000000 cycles: 3581224 heartbeat IPC: 2.79234 cumulative IPC: 2.79234 (Simulation time: 0 hr 1 min 20 sec) 
Heartbeat CPU 0 instructions: 20000002 cycles: 7170166 heartbeat IPC: 2.78634 cumulative IPC: 2.78934 (Simulation time: 0 hr 2 min 46 sec) 
Heartbeat CPU 0 instructions: 30000000 cycles: 10710921 heartbeat IPC: 2.82426 cumulative IPC: 2.80088 (Simulation time: 0 hr 4 min 10 sec) 
Heartbeat CPU 0 instructions: 40000000 cycles: 14261166 heartbeat IPC: 2.81671 cumulative IPC: 2.80482 (Simulation time: 0 hr 5 min 36 sec) 
Heartbeat CPU 0 instructions: 50000001 cycles: 17808937 heartbeat IPC: 2.81867 cumulative IPC: 2.80758 (Simulation time: 0 hr 6 min 58 sec) 

Warmup complete CPU 0 instructions: 50000001 cycles: 17808937 (Simulation time: 0 hr 6 min 58 sec) 

Heartbeat CPU 0 instructions: 60000000 cycles: 24253212 heartbeat IPC: 1.55176 cumulative IPC: 1.55176 (Simulation time: 0 hr 8 min 28 sec) 
Heartbeat CPU 0 instructions: 70000003 cycles: 30691654 heartbeat IPC: 1.55317 cumulative IPC: 1.55247 (Simulation time: 0 hr 9 min 55 sec) 
Heartbeat CPU 0 instructions: 80000003 cycles: 37131365 heartbeat IPC: 1.55286 cumulative IPC: 1.5526 (Simulation time: 0 hr 11 min 22 sec) 
Heartbeat CPU 0 instructions: 90000002 cycles: 43569992 heartbeat IPC: 1.55313 cumulative IPC: 1.55273 (Simulation time: 0 hr 12 min 42 sec) 
Heartbeat CPU 0 instructions: 100000003 cycles: 50006663 heartbeat IPC: 1.5536 cumulative IPC: 1.5529 (Simulation time: 0 hr 14 min 10 sec) 
Finished CPU 0 instructions: 50000002 cycles: 32197726 cumulative IPC: 1.5529 (Simulation time: 0 hr 14 min 10 sec) 

ChampSim completed all CPUs

Region of Interest Statistics

CPU 0 cumulative IPC: 1.5529 instructions: 50000002 cycles: 32197726

SHEET
IPC : 1.5529

L1D TOTAL     ACCESS:   21479898  HIT:   21479089  MISS:        809
L1D LOAD      ACCESS:    6578088  HIT:    6577713  MISS:        375
L1D RFO       ACCESS:    8433492  HIT:    8433379  MISS:        113
L1D PREFETCH  ACCESS:    6468318  HIT:    6467997  MISS:        321
L1D WRITEBACK ACCESS:          0  HIT:          0  MISS:          0
L1D PREFETCH  REQUESTED:    6578146  ISSUED:    6475782  USEFUL:         91  USELESS:        231
L1D AVERAGE MISS LATENCY: 37.5773 cycles
L1D

SHEET
L1D-total_access : 21479898
L1D-total_hit : 21479089
L1D-total_miss : 809
L1D-load_access : 6578088
L1D-load_hit : 6577713
L1D-load_miss : 375
L1D-rfo_access : 8433492
L1D-rfo_hit : 8433379
L1D-rfo_miss : 113
L1D-prefetch_access : 6468318
L1D-prefetch_hit : 6467997
L1D-prefetch_miss : 321
L1D-writeback_access : 0
L1D-writeback_hit : 0
L1D-writeback_miss : 0
L1D-prefetch_requested : 6578146
L1D-prefetch_issued : 6475782
L1D-prefetch_useful : 91
L1D-prefetch_useless : 231
L1D-Avg_miss_latency : 37.5773
L1D-Morteza_fill_l2_prefetches : 0

L1I TOTAL     ACCESS:   18825446  HIT:   17710551  MISS:    1114895
L1I LOAD      ACCESS:    9684484  HIT:    9405384  MISS:     279100
L1I RFO       ACCESS:          0  HIT:          0  MISS:          0
L1I PREFETCH  ACCESS:    9140962  HIT:    8305167  MISS:     835795
L1I WRITEBACK ACCESS:          0  HIT:          0  MISS:          0
L1I PREFETCH  REQUESTED:    9503708  ISSUED:    9503701  USEFUL:     665985  USELESS:     169810
L1I AVERAGE MISS LATENCY: 12.1543 cycles
L1I

SHEET
L1I-total_access : 18825446
L1I-total_hit : 17710551
L1I-total_miss : 1114895
L1I-load_access : 9684484
L1I-load_hit : 9405384
L1I-load_miss : 279100
L1I-rfo_access : 0
L1I-rfo_hit : 0
L1I-rfo_miss : 0
L1I-prefetch_access : 9140962
L1I-prefetch_hit : 8305167
L1I-prefetch_miss : 835795
L1I-writeback_access : 0
L1I-writeback_hit : 0
L1I-writeback_miss : 0
L1I-prefetch_requested : 9503708
L1I-prefetch_issued : 9503701
L1I-prefetch_useful : 665985
L1I-prefetch_useless : 169810
L1I-Avg_miss_latency : 12.1543
L1I-Morteza_fill_l2_prefetches : 0

L2C TOTAL     ACCESS:    1441407  HIT:    1441126  MISS:        281
L2C LOAD      ACCESS:     118507  HIT:     118437  MISS:         70
L2C RFO       ACCESS:        113  HIT:        111  MISS:          2
L2C PREFETCH  ACCESS:    1322451  HIT:    1322244  MISS:        207
L2C WRITEBACK ACCESS:        336  HIT:        334  MISS:          2
L2C PREFETCH  REQUESTED:     750579  ISSUED:     750514  USEFUL:         79  USELESS:        109
L2C AVERAGE MISS LATENCY: 172.324 cycles
L2C

SHEET
L2C-total_access : 1441407
L2C-total_hit : 1441126
L2C-total_miss : 281
L2C-load_access : 118507
L2C-load_hit : 118437
L2C-load_miss : 70
L2C-rfo_access : 113
L2C-rfo_hit : 111
L2C-rfo_miss : 2
L2C-prefetch_access : 1322451
L2C-prefetch_hit : 1322244
L2C-prefetch_miss : 207
L2C-writeback_access : 336
L2C-writeback_hit : 334
L2C-writeback_miss : 2
L2C-prefetch_requested : 750579
L2C-prefetch_issued : 750514
L2C-prefetch_useful : 79
L2C-prefetch_useless : 109
L2C-Avg_miss_latency : 172.324
L2C-Morteza_fill_l2_prefetches : 331118

LLC TOTAL     ACCESS:      86856  HIT:      86164  MISS:        692
LLC LOAD      ACCESS:         70  HIT:         54  MISS:         16
LLC RFO       ACCESS:          2  HIT:          0  MISS:          2
LLC PREFETCH  ACCESS:      86680  HIT:      86009  MISS:        671
LLC WRITEBACK ACCESS:        104  HIT:        101  MISS:          3
LLC PREFETCH  REQUESTED:          0  ISSUED:          0  USEFUL:          9  USELESS:        170
LLC AVERAGE MISS LATENCY: 514.321 cycles
LLC

SHEET
LLC-total_access : 86856
LLC-total_hit : 86164
LLC-total_miss : 692
LLC-load_access : 70
LLC-load_hit : 54
LLC-load_miss : 16
LLC-rfo_access : 2
LLC-rfo_hit : 0
LLC-rfo_miss : 2
LLC-prefetch_access : 86680
LLC-prefetch_hit : 86009
LLC-prefetch_miss : 671
LLC-writeback_access : 104
LLC-writeback_hit : 101
LLC-writeback_miss : 3
LLC-prefetch_requested : 0
LLC-prefetch_issued : 0
LLC-prefetch_useful : 9
LLC-prefetch_useless : 170
LLC-Avg_miss_latency : 514.321
LLC-Morteza_fill_l2_prefetches : 85934

Major fault: 0 Minor fault: 1867



Printing Logs
statHeadFound: 1245078
statHeadMissing: 338975
statStreamBufferHit: 13199864
statPrefetchEntryFound: 6391171
statCompactorMatch: 11511263
statStreamTrackerLookup: 14783917
statRecord: 3272654
statGetPointer: 1584053
statEnqueuePrefetch: 18666961
statPrefetchQueueIsFull: 0
StreamBufferHitRate: 0.892853
Regions' size: 2469
next_region_correct: 2294600
next_region_wrong: 975567
next_region_correct_prediction: 0.701677
statStreamBufferLookups: 1064442024
statL1iLookups: 149335688
statCompactorLookups: 532221012
morteza: start

SHEET
mana_table_access_counter : 9663807
hobp_table_access_counter : 25817959
sab_access_counter : 19591035
srq_access_counter : 17127425

morteza: end
CPU 0 L1D next line prefetcher final stats

DRAM Statistics
 CHANNEL 0
 RQ ROW_BUFFER_HIT:        139  ROW_BUFFER_MISS:        550
 DBUS_CONGESTED:        502
 WQ ROW_BUFFER_HIT:         79  ROW_BUFFER_MISS:        386  FULL:          0

 AVG_CONGESTED_CYCLE: 6

CPU 0 Branch Prediction Accuracy: 99.8789% MPKI: 0.20388 Average ROB Occupancy at Mispredict: 202.742

Branch types
NOT_BRANCH: 41580695 83.1614%
BRANCH_DIRECT_JUMP: 461630 0.92326%
BRANCH_INDIRECT: 0 0%
BRANCH_CONDITIONAL: 5376437 10.7529%
BRANCH_DIRECT_CALL: 1175775 2.35155%
BRANCH_INDIRECT_CALL: 114840 0.22968%
BRANCH_RETURN: 1290625 2.58125%
BRANCH_OTHER: 0 0%

