Initialize SIGNATURE TABLE
ST_SET: 1
ST_WAY: 256
ST_TAG_BIT: 16
ST_TAG_MASK: ffff

Initialize PATTERN TABLE
PT_SET: 512
PT_WAY: 4
SIG_DELTA_BIT: 7
C_SIG_BIT: 4
C_DELTA_BIT: 4

Initialize PREFETCH FILTER
FILTER_SET: 1024
MANA initialize 
tds: 2 tdm: 2
size MANA SINGLE: 15.5 KB
size MANA NULTIPLE: 0 KB
size HOBPT: 0.703125 KB
size SRQ: 0.14502 KB
size SABs: 0.290039 KB
size prefetch queue: 0.453125 KB
total: 17.0913 KB

*** ChampSim Multicore Out-of-Order Simulator ***

Warmup Instructions: 50000000
Simulation Instructions: 50000000
Number of CPUs: 1
LLC sets: 2048
LLC ways: 16
Off-chip DRAM Size: 4096 MB Channels: 1 Width: 64-bit Data Rate: 3200 MT/s

CPU 0 runs /home/mbaradaran/ChampSim/dpc3_traces/server_015.champsimtrace.xz
CPU 0 L1D next line prefetcher
Heartbeat CPU 0 instructions: 10000002 cycles: 3519393 heartbeat IPC: 2.8414 cumulative IPC: 2.8414 (Simulation time: 0 hr 1 min 20 sec) 
Heartbeat CPU 0 instructions: 20000001 cycles: 7107044 heartbeat IPC: 2.78734 cumulative IPC: 2.81411 (Simulation time: 0 hr 2 min 41 sec) 
Heartbeat CPU 0 instructions: 30000001 cycles: 10646025 heartbeat IPC: 2.82567 cumulative IPC: 2.81795 (Simulation time: 0 hr 4 min 8 sec) 
Heartbeat CPU 0 instructions: 40000002 cycles: 14194067 heartbeat IPC: 2.81846 cumulative IPC: 2.81808 (Simulation time: 0 hr 5 min 28 sec) 
Heartbeat CPU 0 instructions: 50000002 cycles: 17742327 heartbeat IPC: 2.81828 cumulative IPC: 2.81812 (Simulation time: 0 hr 6 min 48 sec) 

Warmup complete CPU 0 instructions: 50000002 cycles: 17742327 (Simulation time: 0 hr 6 min 48 sec) 

Heartbeat CPU 0 instructions: 60000002 cycles: 24085240 heartbeat IPC: 1.57656 cumulative IPC: 1.57656 (Simulation time: 0 hr 8 min 12 sec) 
Heartbeat CPU 0 instructions: 70000003 cycles: 30434643 heartbeat IPC: 1.57495 cumulative IPC: 1.57576 (Simulation time: 0 hr 9 min 32 sec) 
Heartbeat CPU 0 instructions: 80000000 cycles: 36779790 heartbeat IPC: 1.57601 cumulative IPC: 1.57584 (Simulation time: 0 hr 10 min 52 sec) 
Heartbeat CPU 0 instructions: 90000000 cycles: 43130854 heartbeat IPC: 1.57454 cumulative IPC: 1.57551 (Simulation time: 0 hr 12 min 13 sec) 
Heartbeat CPU 0 instructions: 100000002 cycles: 49484327 heartbeat IPC: 1.57394 cumulative IPC: 1.5752 (Simulation time: 0 hr 13 min 30 sec) 
Finished CPU 0 instructions: 50000000 cycles: 31742000 cumulative IPC: 1.5752 (Simulation time: 0 hr 13 min 30 sec) 

ChampSim completed all CPUs

Region of Interest Statistics

CPU 0 cumulative IPC: 1.5752 instructions: 50000000 cycles: 31742000

SHEET
IPC : 1.5752

L1D TOTAL     ACCESS:   21877618  HIT:   21860332  MISS:      17286
L1D LOAD      ACCESS:    6713922  HIT:    6713388  MISS:        534
L1D RFO       ACCESS:    8562273  HIT:    8562177  MISS:         96
L1D PREFETCH  ACCESS:    6601423  HIT:    6584767  MISS:      16656
L1D WRITEBACK ACCESS:          0  HIT:          0  MISS:          0
L1D PREFETCH  REQUESTED:    6713980  ISSUED:    6605460  USEFUL:         84  USELESS:      16569
L1D AVERAGE MISS LATENCY: 16.0287 cycles
L1D

SHEET
L1D-total_access : 21877618
L1D-total_hit : 21860332
L1D-total_miss : 17286
L1D-load_access : 6713922
L1D-load_hit : 6713388
L1D-load_miss : 534
L1D-rfo_access : 8562273
L1D-rfo_hit : 8562177
L1D-rfo_miss : 96
L1D-prefetch_access : 6601423
L1D-prefetch_hit : 6584767
L1D-prefetch_miss : 16656
L1D-writeback_access : 0
L1D-writeback_hit : 0
L1D-writeback_miss : 0
L1D-prefetch_requested : 6713980
L1D-prefetch_issued : 6605460
L1D-prefetch_useful : 84
L1D-prefetch_useless : 16569
L1D-Avg_miss_latency : 16.0287
L1D-Morteza_fill_l2_prefetches : 0

L1I TOTAL     ACCESS:   18384252  HIT:   16521835  MISS:    1862417
L1I LOAD      ACCESS:    9565422  HIT:    9133430  MISS:     431992
L1I RFO       ACCESS:          0  HIT:          0  MISS:          0
L1I PREFETCH  ACCESS:    8818830  HIT:    7388405  MISS:    1430425
L1I WRITEBACK ACCESS:          0  HIT:          0  MISS:          0
L1I PREFETCH  REQUESTED:    9300120  ISSUED:    9300119  USEFUL:    1252605  USELESS:     177838
L1I AVERAGE MISS LATENCY: 12.4184 cycles
L1I

SHEET
L1I-total_access : 18384252
L1I-total_hit : 16521835
L1I-total_miss : 1862417
L1I-load_access : 9565422
L1I-load_hit : 9133430
L1I-load_miss : 431992
L1I-rfo_access : 0
L1I-rfo_hit : 0
L1I-rfo_miss : 0
L1I-prefetch_access : 8818830
L1I-prefetch_hit : 7388405
L1I-prefetch_miss : 1430425
L1I-writeback_access : 0
L1I-writeback_hit : 0
L1I-writeback_miss : 0
L1I-prefetch_requested : 9300120
L1I-prefetch_issued : 9300119
L1I-prefetch_useful : 1252605
L1I-prefetch_useless : 177838
L1I-Avg_miss_latency : 12.4184
L1I-Morteza_fill_l2_prefetches : 0

L2C TOTAL     ACCESS:    2445272  HIT:    2445000  MISS:        272
L2C LOAD      ACCESS:     175037  HIT:     174978  MISS:         59
L2C RFO       ACCESS:         94  HIT:         92  MISS:          2
L2C PREFETCH  ACCESS:    2269790  HIT:    2269580  MISS:        210
L2C WRITEBACK ACCESS:        351  HIT:        350  MISS:          1
L2C PREFETCH  REQUESTED:    1230039  ISSUED:    1230030  USEFUL:         99  USELESS:        113
L2C AVERAGE MISS LATENCY: 97.9118 cycles
L2C

SHEET
L2C-total_access : 2445272
L2C-total_hit : 2445000
L2C-total_miss : 272
L2C-load_access : 175037
L2C-load_hit : 174978
L2C-load_miss : 59
L2C-rfo_access : 94
L2C-rfo_hit : 92
L2C-rfo_miss : 2
L2C-prefetch_access : 2269790
L2C-prefetch_hit : 2269580
L2C-prefetch_miss : 210
L2C-writeback_access : 351
L2C-writeback_hit : 350
L2C-writeback_miss : 1
L2C-prefetch_requested : 1230039
L2C-prefetch_issued : 1230030
L2C-prefetch_useful : 99
L2C-prefetch_useless : 113
L2C-Avg_miss_latency : 97.9118
L2C-Morteza_fill_l2_prefetches : 569375

LLC TOTAL     ACCESS:     186541  HIT:     185948  MISS:        593
LLC LOAD      ACCESS:         58  HIT:         41  MISS:         17
LLC RFO       ACCESS:          2  HIT:          1  MISS:          1
LLC PREFETCH  ACCESS:     186405  HIT:     185833  MISS:        572
LLC WRITEBACK ACCESS:         76  HIT:         73  MISS:          3
LLC PREFETCH  REQUESTED:          0  ISSUED:          0  USEFUL:          5  USELESS:        117
LLC AVERAGE MISS LATENCY: 294.233 cycles
LLC

SHEET
LLC-total_access : 186541
LLC-total_hit : 185948
LLC-total_miss : 593
LLC-load_access : 58
LLC-load_hit : 41
LLC-load_miss : 17
LLC-rfo_access : 2
LLC-rfo_hit : 1
LLC-rfo_miss : 1
LLC-prefetch_access : 186406
LLC-prefetch_hit : 185834
LLC-prefetch_miss : 572
LLC-writeback_access : 76
LLC-writeback_hit : 73
LLC-writeback_miss : 3
LLC-prefetch_requested : 0
LLC-prefetch_issued : 0
LLC-prefetch_useful : 5
LLC-prefetch_useless : 117
LLC-Avg_miss_latency : 294.233
LLC-Morteza_fill_l2_prefetches : 185759

Major fault: 0 Minor fault: 1888



Printing Logs
statHeadFound: 1138790
statHeadMissing: 506675
statStreamBufferHit: 12965169
statPrefetchEntryFound: 6138726
statCompactorMatch: 11407208
statStreamTrackerLookup: 14610634
statRecord: 3203426
statGetPointer: 1645465
statEnqueuePrefetch: 18391123
statPrefetchQueueIsFull: 0
StreamBufferHitRate: 0.887379
Regions' size: 2511
next_region_correct: 2317581
next_region_wrong: 883316
next_region_correct_prediction: 0.724041
statStreamBufferLookups: 1051965648
statL1iLookups: 147128984
statCompactorLookups: 525982824
morteza: start

SHEET
mana_table_access_counter : 9342134
hobp_table_access_counter : 25534251
sab_access_counter : 19103895
srq_access_counter : 17014244

morteza: end
CPU 0 L1D next line prefetcher final stats

DRAM Statistics
 CHANNEL 0
 RQ ROW_BUFFER_HIT:         94  ROW_BUFFER_MISS:        496
 DBUS_CONGESTED:        375
 WQ ROW_BUFFER_HIT:         88  ROW_BUFFER_MISS:        318  FULL:          0

 AVG_CONGESTED_CYCLE: 6

CPU 0 Branch Prediction Accuracy: 99.9085% MPKI: 0.15428 Average ROB Occupancy at Mispredict: 270.139

Branch types
NOT_BRANCH: 41573087 83.1462%
BRANCH_DIRECT_JUMP: 436254 0.872508%
BRANCH_INDIRECT: 0 0%
BRANCH_CONDITIONAL: 5395893 10.7918%
BRANCH_DIRECT_CALL: 1173389 2.34678%
BRANCH_INDIRECT_CALL: 123910 0.24782%
BRANCH_RETURN: 1297310 2.59462%
BRANCH_OTHER: 0 0%

