Initialize SIGNATURE TABLE
ST_SET: 1
ST_WAY: 256
ST_TAG_BIT: 16
ST_TAG_MASK: ffff

Initialize PATTERN TABLE
PT_SET: 512
PT_WAY: 4
SIG_DELTA_BIT: 7
C_SIG_BIT: 4
C_DELTA_BIT: 4

Initialize PREFETCH FILTER
FILTER_SET: 1024
MANA initialize 
tds: 2 tdm: 2
size MANA SINGLE: 15.5 KB
size MANA NULTIPLE: 0 KB
size HOBPT: 0.703125 KB
size SRQ: 0.14502 KB
size SABs: 0.290039 KB
size prefetch queue: 0.453125 KB
total: 17.0913 KB

*** ChampSim Multicore Out-of-Order Simulator ***

Warmup Instructions: 50000000
Simulation Instructions: 50000000
Number of CPUs: 1
LLC sets: 2048
LLC ways: 16
Off-chip DRAM Size: 4096 MB Channels: 1 Width: 64-bit Data Rate: 3200 MT/s

CPU 0 runs /home/mbaradaran/ChampSim/dpc3_traces/server_009.champsimtrace.xz
CPU 0 L1D next line prefetcher
Heartbeat CPU 0 instructions: 10000003 cycles: 3198997 heartbeat IPC: 3.12598 cumulative IPC: 3.12598 (Simulation time: 0 hr 1 min 19 sec) 
Heartbeat CPU 0 instructions: 20000001 cycles: 6390866 heartbeat IPC: 3.13296 cumulative IPC: 3.12947 (Simulation time: 0 hr 2 min 37 sec) 
Heartbeat CPU 0 instructions: 30000002 cycles: 9597836 heartbeat IPC: 3.11821 cumulative IPC: 3.1257 (Simulation time: 0 hr 4 min 0 sec) 
Heartbeat CPU 0 instructions: 40000003 cycles: 12801514 heartbeat IPC: 3.12141 cumulative IPC: 3.12463 (Simulation time: 0 hr 5 min 17 sec) 
Heartbeat CPU 0 instructions: 50000000 cycles: 16061100 heartbeat IPC: 3.06787 cumulative IPC: 3.11311 (Simulation time: 0 hr 6 min 33 sec) 

Warmup complete CPU 0 instructions: 50000004 cycles: 16061101 (Simulation time: 0 hr 6 min 33 sec) 

Heartbeat CPU 0 instructions: 60000002 cycles: 32063174 heartbeat IPC: 0.624919 cumulative IPC: 0.624919 (Simulation time: 0 hr 8 min 17 sec) 
Heartbeat CPU 0 instructions: 70000003 cycles: 53286428 heartbeat IPC: 0.471181 cumulative IPC: 0.537269 (Simulation time: 0 hr 10 min 26 sec) 
Heartbeat CPU 0 instructions: 80000000 cycles: 60905343 heartbeat IPC: 1.31252 cumulative IPC: 0.668982 (Simulation time: 0 hr 11 min 40 sec) 
Heartbeat CPU 0 instructions: 90000001 cycles: 68644125 heartbeat IPC: 1.29219 cumulative IPC: 0.760702 (Simulation time: 0 hr 12 min 52 sec) 
Heartbeat CPU 0 instructions: 100000003 cycles: 76311222 heartbeat IPC: 1.30427 cumulative IPC: 0.829874 (Simulation time: 0 hr 14 min 5 sec) 
Finished CPU 0 instructions: 50000003 cycles: 60250122 cumulative IPC: 0.829874 (Simulation time: 0 hr 14 min 5 sec) 

ChampSim completed all CPUs

Region of Interest Statistics

CPU 0 cumulative IPC: 0.829874 instructions: 50000003 cycles: 60250122

SHEET
IPC : 0.829874

L1D TOTAL     ACCESS:   21804931  HIT:   17225100  MISS:    4579831
L1D LOAD      ACCESS:    8713646  HIT:    6435471  MISS:    2278175
L1D RFO       ACCESS:    4587690  HIT:    4483078  MISS:     104612
L1D PREFETCH  ACCESS:    8503595  HIT:    6306551  MISS:    2197044
L1D WRITEBACK ACCESS:          0  HIT:          0  MISS:          0
L1D PREFETCH  REQUESTED:    8747382  ISSUED:    8648944  USEFUL:     108335  USELESS:    2088707
L1D AVERAGE MISS LATENCY: 20.1889 cycles
L1D

SHEET
L1D-total_access : 21804931
L1D-total_hit : 17225100
L1D-total_miss : 4579831
L1D-load_access : 8713646
L1D-load_hit : 6435471
L1D-load_miss : 2278175
L1D-rfo_access : 4587690
L1D-rfo_hit : 4483078
L1D-rfo_miss : 104612
L1D-prefetch_access : 8503595
L1D-prefetch_hit : 6306551
L1D-prefetch_miss : 2197044
L1D-writeback_access : 0
L1D-writeback_hit : 0
L1D-writeback_miss : 0
L1D-prefetch_requested : 8747382
L1D-prefetch_issued : 8648944
L1D-prefetch_useful : 108335
L1D-prefetch_useless : 2088707
L1D-Avg_miss_latency : 20.1889
L1D-Morteza_fill_l2_prefetches : 0

L1I TOTAL     ACCESS:   15525718  HIT:   14090300  MISS:    1435418
L1I LOAD      ACCESS:   10700998  HIT:   10380522  MISS:     320476
L1I RFO       ACCESS:          0  HIT:          0  MISS:          0
L1I PREFETCH  ACCESS:    4824720  HIT:    3709778  MISS:    1114942
L1I WRITEBACK ACCESS:          0  HIT:          0  MISS:          0
L1I PREFETCH  REQUESTED:    5119389  ISSUED:    5098296  USEFUL:     747810  USELESS:     367127
L1I AVERAGE MISS LATENCY: 29.7049 cycles
L1I

SHEET
L1I-total_access : 15525718
L1I-total_hit : 14090300
L1I-total_miss : 1435418
L1I-load_access : 10700998
L1I-load_hit : 10380522
L1I-load_miss : 320476
L1I-rfo_access : 0
L1I-rfo_hit : 0
L1I-rfo_miss : 0
L1I-prefetch_access : 4824720
L1I-prefetch_hit : 3709778
L1I-prefetch_miss : 1114942
L1I-writeback_access : 0
L1I-writeback_hit : 0
L1I-writeback_miss : 0
L1I-prefetch_requested : 5119389
L1I-prefetch_issued : 5098296
L1I-prefetch_useful : 747810
L1I-prefetch_useless : 367127
L1I-Avg_miss_latency : 29.7049
L1I-Morteza_fill_l2_prefetches : 0

L2C TOTAL     ACCESS:    7626949  HIT:    6598484  MISS:    1028465
L2C LOAD      ACCESS:    2479125  HIT:    2167837  MISS:     311288
L2C RFO       ACCESS:     103620  HIT:      64053  MISS:      39567
L2C PREFETCH  ACCESS:    4787341  HIT:    4110747  MISS:     676594
L2C WRITEBACK ACCESS:     256863  HIT:     255847  MISS:       1016
L2C PREFETCH  REQUESTED:    7140455  ISSUED:    7137628  USEFUL:      42244  USELESS:     633194
L2C AVERAGE MISS LATENCY: 46.0357 cycles
L2C

SHEET
L2C-total_access : 7626949
L2C-total_hit : 6598484
L2C-total_miss : 1028465
L2C-load_access : 2479125
L2C-load_hit : 2167837
L2C-load_miss : 311288
L2C-rfo_access : 103620
L2C-rfo_hit : 64053
L2C-rfo_miss : 39567
L2C-prefetch_access : 4787341
L2C-prefetch_hit : 4110747
L2C-prefetch_miss : 676594
L2C-writeback_access : 256863
L2C-writeback_hit : 255847
L2C-writeback_miss : 1016
L2C-prefetch_requested : 7140455
L2C-prefetch_issued : 7137628
L2C-prefetch_useful : 42244
L2C-prefetch_useless : 633194
L2C-Avg_miss_latency : 46.0357
L2C-Morteza_fill_l2_prefetches : 1353229

LLC TOTAL     ACCESS:    2446270  HIT:    2316247  MISS:     130023
LLC LOAD      ACCESS:     309982  HIT:     287118  MISS:      22864
LLC RFO       ACCESS:      39561  HIT:      30734  MISS:       8827
LLC PREFETCH  ACCESS:    1960938  HIT:    1862865  MISS:      98073
LLC WRITEBACK ACCESS:     135789  HIT:     135530  MISS:        259
LLC PREFETCH  REQUESTED:          0  ISSUED:          0  USEFUL:      12848  USELESS:      82946
LLC AVERAGE MISS LATENCY: 169.556 cycles
LLC

SHEET
LLC-total_access : 2446270
LLC-total_hit : 2316247
LLC-total_miss : 130023
LLC-load_access : 309982
LLC-load_hit : 287118
LLC-load_miss : 22864
LLC-rfo_access : 39561
LLC-rfo_hit : 30734
LLC-rfo_miss : 8827
LLC-prefetch_access : 1960938
LLC-prefetch_hit : 1862865
LLC-prefetch_miss : 98073
LLC-writeback_access : 135789
LLC-writeback_hit : 135530
LLC-writeback_miss : 259
LLC-prefetch_requested : 0
LLC-prefetch_issued : 0
LLC-prefetch_useful : 12848
LLC-prefetch_useless : 82946
LLC-Avg_miss_latency : 169.556
LLC-Morteza_fill_l2_prefetches : 1278975

Major fault: 0 Minor fault: 6351



Printing Logs
statHeadFound: 449011
statHeadMissing: 900476
statStreamBufferHit: 12240941
statPrefetchEntryFound: 3120911
statCompactorMatch: 11662649
statStreamTrackerLookup: 13590428
statRecord: 1927779
statGetPointer: 1349487
statEnqueuePrefetch: 10645685
statPrefetchQueueIsFull: 3154
StreamBufferHitRate: 0.900703
Regions' size: 4309
next_region_correct: 1605286
next_region_wrong: 318166
next_region_correct_prediction: 0.834586
statStreamBufferLookups: 978510816
statL1iLookups: 85165480
statCompactorLookups: 489255408
morteza: start

SHEET
mana_table_access_counter : 5051826
hobp_table_access_counter : 16233143
sab_access_counter : 15361852
srq_access_counter : 13196626

morteza: end
CPU 0 L1D next line prefetcher final stats

DRAM Statistics
 CHANNEL 0
 RQ ROW_BUFFER_HIT:      25115  ROW_BUFFER_MISS:     104629
 DBUS_CONGESTED:      58915
 WQ ROW_BUFFER_HIT:       8966  ROW_BUFFER_MISS:      38703  FULL:          0

 AVG_CONGESTED_CYCLE: 5

CPU 0 Branch Prediction Accuracy: 99.4713% MPKI: 1.11484 Average ROB Occupancy at Mispredict: 104.026

Branch types
NOT_BRANCH: 39456615 78.9132%
BRANCH_DIRECT_JUMP: 445350 0.8907%
BRANCH_INDIRECT: 131149 0.262298%
BRANCH_CONDITIONAL: 8130196 16.2604%
BRANCH_DIRECT_CALL: 732485 1.46497%
BRANCH_INDIRECT_CALL: 172369 0.344738%
BRANCH_RETURN: 931558 1.86312%
BRANCH_OTHER: 0 0%

