Initialize SIGNATURE TABLE
ST_SET: 1
ST_WAY: 256
ST_TAG_BIT: 16
ST_TAG_MASK: ffff

Initialize PATTERN TABLE
PT_SET: 512
PT_WAY: 4
SIG_DELTA_BIT: 7
C_SIG_BIT: 4
C_DELTA_BIT: 4

Initialize PREFETCH FILTER
FILTER_SET: 1024
MANA initialize 
tds: 2 tdm: 2
size MANA SINGLE: 15.5 KB
size MANA NULTIPLE: 0 KB
size HOBPT: 0.703125 KB
size SRQ: 0.14502 KB
size SABs: 0.290039 KB
size prefetch queue: 0.453125 KB
total: 17.0913 KB

*** ChampSim Multicore Out-of-Order Simulator ***

Warmup Instructions: 50000000
Simulation Instructions: 50000000
Number of CPUs: 1
LLC sets: 2048
LLC ways: 16
Off-chip DRAM Size: 4096 MB Channels: 1 Width: 64-bit Data Rate: 3200 MT/s

CPU 0 runs /home/mbaradaran/ChampSim/dpc3_traces/spec_perlbench_001.champsimtrace.xz
CPU 0 L1D next line prefetcher
Heartbeat CPU 0 instructions: 10000000 cycles: 3275790 heartbeat IPC: 3.0527 cumulative IPC: 3.0527 (Simulation time: 0 hr 1 min 11 sec) 
Heartbeat CPU 0 instructions: 20000000 cycles: 6540450 heartbeat IPC: 3.06311 cumulative IPC: 3.05789 (Simulation time: 0 hr 2 min 22 sec) 
Heartbeat CPU 0 instructions: 30000002 cycles: 9857060 heartbeat IPC: 3.01513 cumulative IPC: 3.0435 (Simulation time: 0 hr 3 min 32 sec) 
Heartbeat CPU 0 instructions: 40000002 cycles: 13112525 heartbeat IPC: 3.07176 cumulative IPC: 3.05052 (Simulation time: 0 hr 4 min 40 sec) 
Heartbeat CPU 0 instructions: 50000001 cycles: 16386228 heartbeat IPC: 3.05464 cumulative IPC: 3.05134 (Simulation time: 0 hr 5 min 45 sec) 

Warmup complete CPU 0 instructions: 50000001 cycles: 16386228 (Simulation time: 0 hr 5 min 45 sec) 

Heartbeat CPU 0 instructions: 60000001 cycles: 24656091 heartbeat IPC: 1.20921 cumulative IPC: 1.20921 (Simulation time: 0 hr 6 min 45 sec) 
Heartbeat CPU 0 instructions: 70000003 cycles: 32841704 heartbeat IPC: 1.22166 cumulative IPC: 1.2154 (Simulation time: 0 hr 7 min 48 sec) 
Heartbeat CPU 0 instructions: 80000000 cycles: 41250646 heartbeat IPC: 1.18921 cumulative IPC: 1.20654 (Simulation time: 0 hr 8 min 49 sec) 
Heartbeat CPU 0 instructions: 90000000 cycles: 46963233 heartbeat IPC: 1.75052 cumulative IPC: 1.30817 (Simulation time: 0 hr 9 min 36 sec) 
Heartbeat CPU 0 instructions: 100000002 cycles: 52823067 heartbeat IPC: 1.70653 cumulative IPC: 1.37224 (Simulation time: 0 hr 10 min 22 sec) 
Finished CPU 0 instructions: 50000001 cycles: 36436839 cumulative IPC: 1.37224 (Simulation time: 0 hr 10 min 22 sec) 

ChampSim completed all CPUs

Region of Interest Statistics

CPU 0 cumulative IPC: 1.37224 instructions: 50000001 cycles: 36436839

SHEET
IPC : 1.37224

L1D TOTAL     ACCESS:   20707439  HIT:   20292338  MISS:     415101
L1D LOAD      ACCESS:    7182887  HIT:    6969210  MISS:     213677
L1D RFO       ACCESS:    6542699  HIT:    6524189  MISS:      18510
L1D PREFETCH  ACCESS:    6981853  HIT:    6798939  MISS:     182914
L1D WRITEBACK ACCESS:          0  HIT:          0  MISS:          0
L1D PREFETCH  REQUESTED:    7198580  ISSUED:    7082244  USEFUL:      55247  USELESS:     127662
L1D AVERAGE MISS LATENCY: 57.6623 cycles
L1D

SHEET
L1D-total_access : 20707439
L1D-total_hit : 20292338
L1D-total_miss : 415101
L1D-load_access : 7182887
L1D-load_hit : 6969210
L1D-load_miss : 213677
L1D-rfo_access : 6542699
L1D-rfo_hit : 6524189
L1D-rfo_miss : 18510
L1D-prefetch_access : 6981853
L1D-prefetch_hit : 6798939
L1D-prefetch_miss : 182914
L1D-writeback_access : 0
L1D-writeback_hit : 0
L1D-writeback_miss : 0
L1D-prefetch_requested : 7198580
L1D-prefetch_issued : 7082244
L1D-prefetch_useful : 55247
L1D-prefetch_useless : 127662
L1D-Avg_miss_latency : 57.6623
L1D-Morteza_fill_l2_prefetches : 0

L1I TOTAL     ACCESS:   15415505  HIT:   14983734  MISS:     431771
L1I LOAD      ACCESS:    9134892  HIT:    9022281  MISS:     112611
L1I RFO       ACCESS:          0  HIT:          0  MISS:          0
L1I PREFETCH  ACCESS:    6280613  HIT:    5961453  MISS:     319160
L1I WRITEBACK ACCESS:          0  HIT:          0  MISS:          0
L1I PREFETCH  REQUESTED:    6483186  ISSUED:    6473936  USEFUL:     236082  USELESS:      83088
L1I AVERAGE MISS LATENCY: 17.6836 cycles
L1I

SHEET
L1I-total_access : 15415505
L1I-total_hit : 14983734
L1I-total_miss : 431771
L1I-load_access : 9134892
L1I-load_hit : 9022281
L1I-load_miss : 112611
L1I-rfo_access : 0
L1I-rfo_hit : 0
L1I-rfo_miss : 0
L1I-prefetch_access : 6280613
L1I-prefetch_hit : 5961453
L1I-prefetch_miss : 319160
L1I-writeback_access : 0
L1I-writeback_hit : 0
L1I-writeback_miss : 0
L1I-prefetch_requested : 6483186
L1I-prefetch_issued : 6473936
L1I-prefetch_useful : 236082
L1I-prefetch_useless : 83088
L1I-Avg_miss_latency : 17.6836
L1I-Morteza_fill_l2_prefetches : 0

L2C TOTAL     ACCESS:    1191427  HIT:    1025384  MISS:     166043
L2C LOAD      ACCESS:     295046  HIT:     214229  MISS:      80817
L2C RFO       ACCESS:      18276  HIT:      12920  MISS:       5356
L2C PREFETCH  ACCESS:     799148  HIT:     719620  MISS:      79528
L2C WRITEBACK ACCESS:      78957  HIT:      78615  MISS:        342
L2C PREFETCH  REQUESTED:     782682  ISSUED:     782649  USEFUL:       6270  USELESS:      73222
L2C AVERAGE MISS LATENCY: 119.717 cycles
L2C

SHEET
L2C-total_access : 1191427
L2C-total_hit : 1025384
L2C-total_miss : 166043
L2C-load_access : 295046
L2C-load_hit : 214229
L2C-load_miss : 80817
L2C-rfo_access : 18276
L2C-rfo_hit : 12920
L2C-rfo_miss : 5356
L2C-prefetch_access : 799148
L2C-prefetch_hit : 719620
L2C-prefetch_miss : 79528
L2C-writeback_access : 78957
L2C-writeback_hit : 78615
L2C-writeback_miss : 342
L2C-prefetch_requested : 782682
L2C-prefetch_issued : 782649
L2C-prefetch_useful : 6270
L2C-prefetch_useless : 73222
L2C-Avg_miss_latency : 119.717
L2C-Morteza_fill_l2_prefetches : 267530

LLC TOTAL     ACCESS:     384972  HIT:     243034  MISS:     141938
LLC LOAD      ACCESS:      80812  HIT:      32554  MISS:      48258
LLC RFO       ACCESS:       5356  HIT:       2297  MISS:       3059
LLC PREFETCH  ACCESS:     273681  HIT:     183551  MISS:      90130
LLC WRITEBACK ACCESS:      25123  HIT:      24632  MISS:        491
LLC PREFETCH  REQUESTED:          0  ISSUED:          0  USEFUL:      15170  USELESS:      75176
LLC AVERAGE MISS LATENCY: 159.872 cycles
LLC

SHEET
LLC-total_access : 384972
LLC-total_hit : 243034
LLC-total_miss : 141938
LLC-load_access : 80812
LLC-load_hit : 32554
LLC-load_miss : 48258
LLC-rfo_access : 5356
LLC-rfo_hit : 2297
LLC-rfo_miss : 3059
LLC-prefetch_access : 273681
LLC-prefetch_hit : 183551
LLC-prefetch_miss : 90130
LLC-writeback_access : 25123
LLC-writeback_hit : 24632
LLC-writeback_miss : 491
LLC-prefetch_requested : 0
LLC-prefetch_issued : 0
LLC-prefetch_useful : 15170
LLC-prefetch_useless : 75176
LLC-Avg_miss_latency : 159.872
LLC-Morteza_fill_l2_prefetches : 146927

Major fault: 0 Minor fault: 6364



Printing Logs
statHeadFound: 673149
statHeadMissing: 252754
statStreamBufferHit: 13361039
statPrefetchEntryFound: 4255452
statCompactorMatch: 12979104
statStreamTrackerLookup: 14286942
statRecord: 1307838
statGetPointer: 925903
statEnqueuePrefetch: 13061161
statPrefetchQueueIsFull: 398
StreamBufferHitRate: 0.935192
Regions' size: 2400
next_region_correct: 914632
next_region_wrong: 390788
next_region_correct_prediction: 0.700642
statStreamBufferLookups: 1028659824
statL1iLookups: 104489288
statCompactorLookups: 514329912
morteza: start

SHEET
mana_table_access_counter : 5563670
hobp_table_access_counter : 13190760
sab_access_counter : 17616491
srq_access_counter : 12611270

morteza: end
CPU 0 L1D next line prefetcher final stats

DRAM Statistics
 CHANNEL 0
 RQ ROW_BUFFER_HIT:      32432  ROW_BUFFER_MISS:     109014
 DBUS_CONGESTED:      58943
 WQ ROW_BUFFER_HIT:       4281  ROW_BUFFER_MISS:      13031  FULL:          0

 AVG_CONGESTED_CYCLE: 4

CPU 0 Branch Prediction Accuracy: 98.7418% MPKI: 2.47758 Average ROB Occupancy at Mispredict: 77.8054

Branch types
NOT_BRANCH: 40154100 80.3082%
BRANCH_DIRECT_JUMP: 817094 1.63419%
BRANCH_INDIRECT: 303787 0.607574%
BRANCH_CONDITIONAL: 7492103 14.9842%
BRANCH_DIRECT_CALL: 471777 0.943554%
BRANCH_INDIRECT_CALL: 144546 0.289092%
BRANCH_RETURN: 616324 1.23265%
BRANCH_OTHER: 0 0%

