Initialize SIGNATURE TABLE
ST_SET: 1
ST_WAY: 256
ST_TAG_BIT: 16
ST_TAG_MASK: ffff

Initialize PATTERN TABLE
PT_SET: 512
PT_WAY: 4
SIG_DELTA_BIT: 7
C_SIG_BIT: 4
C_DELTA_BIT: 4

Initialize PREFETCH FILTER
FILTER_SET: 1024
MANA initialize 
tds: 2 tdm: 2
size MANA SINGLE: 15.5 KB
size MANA NULTIPLE: 0 KB
size HOBPT: 0.703125 KB
size SRQ: 0.14502 KB
size SABs: 0.290039 KB
size prefetch queue: 0.453125 KB
total: 17.0913 KB

*** ChampSim Multicore Out-of-Order Simulator ***

Warmup Instructions: 50000000
Simulation Instructions: 50000000
Number of CPUs: 1
LLC sets: 2048
LLC ways: 16
Off-chip DRAM Size: 4096 MB Channels: 1 Width: 64-bit Data Rate: 3200 MT/s

CPU 0 runs /home/mbaradaran/ChampSim/dpc3_traces/spec_gcc_002.champsimtrace.xz
CPU 0 L1D next line prefetcher
Heartbeat CPU 0 instructions: 10000002 cycles: 3589600 heartbeat IPC: 2.78583 cumulative IPC: 2.78583 (Simulation time: 0 hr 1 min 10 sec) 
Heartbeat CPU 0 instructions: 20000000 cycles: 7170464 heartbeat IPC: 2.79262 cumulative IPC: 2.78922 (Simulation time: 0 hr 2 min 15 sec) 
Heartbeat CPU 0 instructions: 30000000 cycles: 10847312 heartbeat IPC: 2.71972 cumulative IPC: 2.76566 (Simulation time: 0 hr 3 min 28 sec) 
Heartbeat CPU 0 instructions: 40000000 cycles: 14414246 heartbeat IPC: 2.80353 cumulative IPC: 2.77503 (Simulation time: 0 hr 4 min 42 sec) 
Heartbeat CPU 0 instructions: 50000002 cycles: 17901655 heartbeat IPC: 2.86746 cumulative IPC: 2.79304 (Simulation time: 0 hr 5 min 51 sec) 

Warmup complete CPU 0 instructions: 50000002 cycles: 17901655 (Simulation time: 0 hr 5 min 51 sec) 

Heartbeat CPU 0 instructions: 60000001 cycles: 57942799 heartbeat IPC: 0.249743 cumulative IPC: 0.249743 (Simulation time: 0 hr 8 min 18 sec) 
Heartbeat CPU 0 instructions: 70000001 cycles: 90061429 heartbeat IPC: 0.311346 cumulative IPC: 0.277163 (Simulation time: 0 hr 10 min 24 sec) 
Heartbeat CPU 0 instructions: 80000002 cycles: 139239674 heartbeat IPC: 0.203342 cumulative IPC: 0.247243 (Simulation time: 0 hr 13 min 8 sec) 
Heartbeat CPU 0 instructions: 90000001 cycles: 184047456 heartbeat IPC: 0.223175 cumulative IPC: 0.240752 (Simulation time: 0 hr 15 min 38 sec) 
Heartbeat CPU 0 instructions: 100000000 cycles: 216141312 heartbeat IPC: 0.311586 cumulative IPC: 0.25222 (Simulation time: 0 hr 17 min 38 sec) 
Finished CPU 0 instructions: 50000002 cycles: 198239665 cumulative IPC: 0.25222 (Simulation time: 0 hr 17 min 38 sec) 

ChampSim completed all CPUs

Region of Interest Statistics

CPU 0 cumulative IPC: 0.25222 instructions: 50000002 cycles: 198239665

SHEET
IPC : 0.25222

L1D TOTAL     ACCESS:   18308745  HIT:   13075057  MISS:    5233688
L1D LOAD      ACCESS:    6395293  HIT:    5336979  MISS:    1058314
L1D RFO       ACCESS:    7032041  HIT:    3431331  MISS:    3600710
L1D PREFETCH  ACCESS:    4881411  HIT:    4306747  MISS:     574664
L1D WRITEBACK ACCESS:          0  HIT:          0  MISS:          0
L1D PREFETCH  REQUESTED:    6415912  ISSUED:    6346461  USEFUL:     414851  USELESS:     160029
L1D AVERAGE MISS LATENCY: 334.07 cycles
L1D

SHEET
L1D-total_access : 18308745
L1D-total_hit : 13075057
L1D-total_miss : 5233688
L1D-load_access : 6395293
L1D-load_hit : 5336979
L1D-load_miss : 1058314
L1D-rfo_access : 7032041
L1D-rfo_hit : 3431331
L1D-rfo_miss : 3600710
L1D-prefetch_access : 4881411
L1D-prefetch_hit : 4306747
L1D-prefetch_miss : 574664
L1D-writeback_access : 0
L1D-writeback_hit : 0
L1D-writeback_miss : 0
L1D-prefetch_requested : 6415912
L1D-prefetch_issued : 6346461
L1D-prefetch_useful : 414851
L1D-prefetch_useless : 160029
L1D-Avg_miss_latency : 334.07
L1D-Morteza_fill_l2_prefetches : 0

L1I TOTAL     ACCESS:   15584140  HIT:   14812205  MISS:     771935
L1I LOAD      ACCESS:   12077557  HIT:   11870205  MISS:     207352
L1I RFO       ACCESS:          0  HIT:          0  MISS:          0
L1I PREFETCH  ACCESS:    3506583  HIT:    2942000  MISS:     564583
L1I WRITEBACK ACCESS:          0  HIT:          0  MISS:          0
L1I PREFETCH  REQUESTED:    3839269  ISSUED:    3784321  USEFUL:     401106  USELESS:     163447
L1I AVERAGE MISS LATENCY: 67.8827 cycles
L1I

SHEET
L1I-total_access : 15584140
L1I-total_hit : 14812205
L1I-total_miss : 771935
L1I-load_access : 12077557
L1I-load_hit : 11870205
L1I-load_miss : 207352
L1I-rfo_access : 0
L1I-rfo_hit : 0
L1I-rfo_miss : 0
L1I-prefetch_access : 3506583
L1I-prefetch_hit : 2942000
L1I-prefetch_miss : 564583
L1I-writeback_access : 0
L1I-writeback_hit : 0
L1I-writeback_miss : 0
L1I-prefetch_requested : 3839269
L1I-prefetch_issued : 3784321
L1I-prefetch_useful : 401106
L1I-prefetch_useless : 163447
L1I-Avg_miss_latency : 67.8827
L1I-Morteza_fill_l2_prefetches : 0

L2C TOTAL     ACCESS:   10084239  HIT:    4789529  MISS:    5294710
L2C LOAD      ACCESS:     397732  HIT:     184462  MISS:     213270
L2C RFO       ACCESS:    3599115  HIT:      12451  MISS:    3586664
L2C PREFETCH  ACCESS:    2361898  HIT:     867243  MISS:    1494655
L2C WRITEBACK ACCESS:    3725494  HIT:    3725373  MISS:        121
L2C PREFETCH  REQUESTED:    2981967  ISSUED:    2981947  USEFUL:      46009  USELESS:    1448860
L2C AVERAGE MISS LATENCY: 344.939 cycles
L2C

SHEET
L2C-total_access : 10084239
L2C-total_hit : 4789529
L2C-total_miss : 5294710
L2C-load_access : 397732
L2C-load_hit : 184462
L2C-load_miss : 213270
L2C-rfo_access : 3599115
L2C-rfo_hit : 12451
L2C-rfo_miss : 3586664
L2C-prefetch_access : 2361898
L2C-prefetch_hit : 867243
L2C-prefetch_miss : 1494655
L2C-writeback_access : 3725494
L2C-writeback_hit : 3725373
L2C-writeback_miss : 121
L2C-prefetch_requested : 2981967
L2C-prefetch_issued : 2981947
L2C-prefetch_useful : 46009
L2C-prefetch_useless : 1448860
L2C-Avg_miss_latency : 344.939
L2C-Morteza_fill_l2_prefetches : 255779

LLC TOTAL     ACCESS:    9925766  HIT:    6074347  MISS:    3851419
LLC LOAD      ACCESS:     213077  HIT:     126645  MISS:      86432
LLC RFO       ACCESS:    3586664  HIT:     598820  MISS:    2987844
LLC PREFETCH  ACCESS:    2459722  HIT:    1682579  MISS:     777143
LLC WRITEBACK ACCESS:    3666303  HIT:    3666303  MISS:          0
LLC PREFETCH  REQUESTED:          0  ISSUED:          0  USEFUL:     152980  USELESS:     619543
LLC AVERAGE MISS LATENCY: 454.984 cycles
LLC

SHEET
LLC-total_access : 9925766
LLC-total_hit : 6074347
LLC-total_miss : 3851419
LLC-load_access : 213077
LLC-load_hit : 126645
LLC-load_miss : 86432
LLC-rfo_access : 3586665
LLC-rfo_hit : 598820
LLC-rfo_miss : 2987845
LLC-prefetch_access : 2459722
LLC-prefetch_hit : 1682579
LLC-prefetch_miss : 777143
LLC-writeback_access : 3666303
LLC-writeback_hit : 3666303
LLC-writeback_miss : 0
LLC-prefetch_requested : 0
LLC-prefetch_issued : 0
LLC-prefetch_useful : 152980
LLC-prefetch_useless : 619543
LLC-Avg_miss_latency : 454.984
LLC-Morteza_fill_l2_prefetches : 921821

Major fault: 0 Minor fault: 4152



Printing Logs
statHeadFound: 490041
statHeadMissing: 4528378
statStreamBufferHit: 8090648
statPrefetchEntryFound: 2335975
statCompactorMatch: 12215070
statStreamTrackerLookup: 13109067
statRecord: 893997
statGetPointer: 5018419
statEnqueuePrefetch: 7230869
statPrefetchQueueIsFull: 829
StreamBufferHitRate: 0.61718
Regions' size: 1459
next_region_correct: 529362
next_region_wrong: 363158
next_region_correct_prediction: 0.593109
statStreamBufferLookups: 943852824
statL1iLookups: 57846952
statCompactorLookups: 471926412
morteza: start

SHEET
mana_table_access_counter : 3230783
hobp_table_access_counter : 25986437
sab_access_counter : 10426623
srq_access_counter : 12235562

morteza: end
CPU 0 L1D next line prefetcher final stats

DRAM Statistics
 CHANNEL 0
 RQ ROW_BUFFER_HIT:    1015959  ROW_BUFFER_MISS:    2832541
 DBUS_CONGESTED:    5533242
 WQ ROW_BUFFER_HIT:     947413  ROW_BUFFER_MISS:    2216596  FULL:          0

 AVG_CONGESTED_CYCLE: 6

CPU 0 Branch Prediction Accuracy: 99.5987% MPKI: 0.82446 Average ROB Occupancy at Mispredict: 119.875

Branch types
NOT_BRANCH: 39726807 79.4536%
BRANCH_DIRECT_JUMP: 391439 0.782878%
BRANCH_INDIRECT: 62076 0.124152%
BRANCH_CONDITIONAL: 8421541 16.8431%
BRANCH_DIRECT_CALL: 672962 1.34592%
BRANCH_INDIRECT_CALL: 26115 0.05223%
BRANCH_RETURN: 699082 1.39816%
BRANCH_OTHER: 0 0%

