Initialize SIGNATURE TABLE
ST_SET: 1
ST_WAY: 256
ST_TAG_BIT: 16
ST_TAG_MASK: ffff

Initialize PATTERN TABLE
PT_SET: 512
PT_WAY: 4
SIG_DELTA_BIT: 7
C_SIG_BIT: 4
C_DELTA_BIT: 4

Initialize PREFETCH FILTER
FILTER_SET: 1024

*** ChampSim Multicore Out-of-Order Simulator ***

Warmup Instructions: 50000000
Simulation Instructions: 50000000
Number of CPUs: 1
LLC sets: 2048
LLC ways: 16
Off-chip DRAM Size: 4096 MB Channels: 1 Width: 64-bit Data Rate: 3200 MT/s

CPU 0 runs /home/mbaradaran/ChampSim/dpc3_traces/client_008.champsimtrace.xz
CPU 0 L1D next line prefetcher
Heartbeat CPU 0 instructions: 10000001 cycles: 3751306 heartbeat IPC: 2.66574 cumulative IPC: 2.66574 (Simulation time: 0 hr 1 min 39 sec) 
Heartbeat CPU 0 instructions: 20000001 cycles: 7524436 heartbeat IPC: 2.65032 cumulative IPC: 2.65801 (Simulation time: 0 hr 3 min 22 sec) 
Heartbeat CPU 0 instructions: 30000000 cycles: 11248972 heartbeat IPC: 2.6849 cumulative IPC: 2.66691 (Simulation time: 0 hr 5 min 13 sec) 
Heartbeat CPU 0 instructions: 40000002 cycles: 15040285 heartbeat IPC: 2.63761 cumulative IPC: 2.65952 (Simulation time: 0 hr 6 min 58 sec) 
Heartbeat CPU 0 instructions: 50000003 cycles: 18829226 heartbeat IPC: 2.63926 cumulative IPC: 2.65545 (Simulation time: 0 hr 8 min 46 sec) 

Warmup complete CPU 0 instructions: 50000003 cycles: 18829226 (Simulation time: 0 hr 8 min 46 sec) 

Heartbeat CPU 0 instructions: 60000000 cycles: 27152925 heartbeat IPC: 1.20139 cumulative IPC: 1.20139 (Simulation time: 0 hr 10 min 37 sec) 
Heartbeat CPU 0 instructions: 70000000 cycles: 35181013 heartbeat IPC: 1.24563 cumulative IPC: 1.22311 (Simulation time: 0 hr 12 min 40 sec) 
Heartbeat CPU 0 instructions: 80000001 cycles: 44360430 heartbeat IPC: 1.08939 cumulative IPC: 1.17503 (Simulation time: 0 hr 14 min 12 sec) 
Heartbeat CPU 0 instructions: 90000001 cycles: 51790799 heartbeat IPC: 1.34583 cumulative IPC: 1.21353 (Simulation time: 0 hr 15 min 37 sec) 
Heartbeat CPU 0 instructions: 100000001 cycles: 59861930 heartbeat IPC: 1.23898 cumulative IPC: 1.21854 (Simulation time: 0 hr 17 min 12 sec) 
Finished CPU 0 instructions: 50000002 cycles: 41032705 cumulative IPC: 1.21854 (Simulation time: 0 hr 17 min 12 sec) 

ChampSim completed all CPUs

Region of Interest Statistics

CPU 0 cumulative IPC: 1.21854 instructions: 50000002 cycles: 41032705

SHEET
IPC : 1.21854

L1D TOTAL     ACCESS:   20506070  HIT:   18877564  MISS:    1628506
L1D LOAD      ACCESS:    8073365  HIT:    7274346  MISS:     799019
L1D RFO       ACCESS:    4816458  HIT:    4706882  MISS:     109576
L1D PREFETCH  ACCESS:    7616247  HIT:    6896336  MISS:     719911
L1D WRITEBACK ACCESS:          0  HIT:          0  MISS:          0
L1D PREFETCH  REQUESTED:    8142064  ISSUED:    7973166  USEFUL:     200122  USELESS:     519794
L1D AVERAGE MISS LATENCY: 32.7714 cycles
L1D

SHEET
L1D-total_access : 20506070
L1D-total_hit : 18877564
L1D-total_miss : 1628506
L1D-load_access : 8073365
L1D-load_hit : 7274346
L1D-load_miss : 799019
L1D-rfo_access : 4816458
L1D-rfo_hit : 4706882
L1D-rfo_miss : 109576
L1D-prefetch_access : 7616247
L1D-prefetch_hit : 6896336
L1D-prefetch_miss : 719911
L1D-writeback_access : 0
L1D-writeback_hit : 0
L1D-writeback_miss : 0
L1D-prefetch_requested : 8142064
L1D-prefetch_issued : 7973166
L1D-prefetch_useful : 200122
L1D-prefetch_useless : 519794
L1D-Avg_miss_latency : 32.7714
L1D-Morteza_fill_l2_prefetches : 0

L1I TOTAL     ACCESS:   16291234  HIT:   15200129  MISS:    1091105
L1I LOAD      ACCESS:    9764749  HIT:    9685989  MISS:      78760
L1I RFO       ACCESS:          0  HIT:          0  MISS:          0
L1I PREFETCH  ACCESS:    6526485  HIT:    5514140  MISS:    1012345
L1I WRITEBACK ACCESS:          0  HIT:          0  MISS:          0
L1I PREFETCH  REQUESTED:    6589969  ISSUED:    6588270  USEFUL:     755801  USELESS:     256522
L1I AVERAGE MISS LATENCY: 16.9977 cycles
L1I

SHEET
L1I-total_access : 16291234
L1I-total_hit : 15200129
L1I-total_miss : 1091105
L1I-load_access : 9764749
L1I-load_hit : 9685989
L1I-load_miss : 78760
L1I-rfo_access : 0
L1I-rfo_hit : 0
L1I-rfo_miss : 0
L1I-prefetch_access : 6526485
L1I-prefetch_hit : 5514140
L1I-prefetch_miss : 1012345
L1I-writeback_access : 0
L1I-writeback_hit : 0
L1I-writeback_miss : 0
L1I-prefetch_requested : 6589969
L1I-prefetch_issued : 6588270
L1I-prefetch_useful : 755801
L1I-prefetch_useless : 256522
L1I-Avg_miss_latency : 16.9977
L1I-Morteza_fill_l2_prefetches : 0

L2C TOTAL     ACCESS:    3828540  HIT:    3369371  MISS:     459169
L2C LOAD      ACCESS:     815485  HIT:     638454  MISS:     177031
L2C RFO       ACCESS:     104282  HIT:      18230  MISS:      86052
L2C PREFETCH  ACCESS:    2726795  HIT:    2531162  MISS:     195633
L2C WRITEBACK ACCESS:     181978  HIT:     181525  MISS:        453
L2C PREFETCH  REQUESTED:    2982970  ISSUED:    2976749  USEFUL:      18448  USELESS:     178139
L2C AVERAGE MISS LATENCY: 74.6393 cycles
L2C

SHEET
L2C-total_access : 3828540
L2C-total_hit : 3369371
L2C-total_miss : 459169
L2C-load_access : 815485
L2C-load_hit : 638454
L2C-load_miss : 177031
L2C-rfo_access : 104282
L2C-rfo_hit : 18230
L2C-rfo_miss : 86052
L2C-prefetch_access : 2726795
L2C-prefetch_hit : 2531162
L2C-prefetch_miss : 195633
L2C-writeback_access : 181978
L2C-writeback_hit : 181525
L2C-writeback_miss : 453
L2C-prefetch_requested : 2982970
L2C-prefetch_issued : 2976749
L2C-prefetch_useful : 18448
L2C-prefetch_useless : 178139
L2C-Avg_miss_latency : 74.6393
L2C-Morteza_fill_l2_prefetches : 938393

LLC TOTAL     ACCESS:    1389869  HIT:    1208058  MISS:     181811
LLC LOAD      ACCESS:     176915  HIT:     152050  MISS:      24865
LLC RFO       ACCESS:      86047  HIT:      16049  MISS:      69998
LLC PREFETCH  ACCESS:     990798  HIT:     904201  MISS:      86597
LLC WRITEBACK ACCESS:     136109  HIT:     135758  MISS:        351
LLC PREFETCH  REQUESTED:          0  ISSUED:          0  USEFUL:      26616  USELESS:      66069
LLC AVERAGE MISS LATENCY: 164.561 cycles
LLC

SHEET
LLC-total_access : 1389869
LLC-total_hit : 1208058
LLC-total_miss : 181811
LLC-load_access : 176915
LLC-load_hit : 152050
LLC-load_miss : 24865
LLC-rfo_access : 86047
LLC-rfo_hit : 16049
LLC-rfo_miss : 69998
LLC-prefetch_access : 990798
LLC-prefetch_hit : 904201
LLC-prefetch_miss : 86597
LLC-writeback_access : 136109
LLC-writeback_hit : 135758
LLC-writeback_miss : 351
LLC-prefetch_requested : 0
LLC-prefetch_issued : 0
LLC-prefetch_useful : 26616
LLC-prefetch_useless : 66069
LLC-Avg_miss_latency : 164.561
LLC-Morteza_fill_l2_prefetches : 750158

Major fault: 0 Minor fault: 5303



Printing Logs
morteza: start

SHEET
history_access_cntr : 6115631
index_access_cntr : 2167885
sab_access_cntr : 17266312
compactor_access_cntr : 15760861

morteza: end
CPU 0 L1D next line prefetcher final stats

DRAM Statistics
 CHANNEL 0
 RQ ROW_BUFFER_HIT:      50556  ROW_BUFFER_MISS:     130891
 DBUS_CONGESTED:      96382
 WQ ROW_BUFFER_HIT:      24539  ROW_BUFFER_MISS:      66293  FULL:          0

 AVG_CONGESTED_CYCLE: 6

CPU 0 Branch Prediction Accuracy: 98.6482% MPKI: 3.1551 Average ROB Occupancy at Mispredict: 95.1777

Branch types
NOT_BRANCH: 38329598 76.6592%
BRANCH_DIRECT_JUMP: 510116 1.02023%
BRANCH_INDIRECT: 225730 0.45146%
BRANCH_CONDITIONAL: 8366762 16.7335%
BRANCH_DIRECT_CALL: 600748 1.2015%
BRANCH_INDIRECT_CALL: 682990 1.36598%
BRANCH_RETURN: 1283974 2.56795%
BRANCH_OTHER: 0 0%

