Initialize SIGNATURE TABLE
ST_SET: 1
ST_WAY: 256
ST_TAG_BIT: 16
ST_TAG_MASK: ffff

Initialize PATTERN TABLE
PT_SET: 512
PT_WAY: 4
SIG_DELTA_BIT: 7
C_SIG_BIT: 4
C_DELTA_BIT: 4

Initialize PREFETCH FILTER
FILTER_SET: 1024

*** ChampSim Multicore Out-of-Order Simulator ***

Warmup Instructions: 50000000
Simulation Instructions: 50000000
Number of CPUs: 1
LLC sets: 2048
LLC ways: 16
Off-chip DRAM Size: 4096 MB Channels: 1 Width: 64-bit Data Rate: 3200 MT/s

CPU 0 runs /home/mbaradaran/ChampSim/dpc3_traces/server_003.champsimtrace.xz
CPU 0 L1D next line prefetcher
Heartbeat CPU 0 instructions: 10000002 cycles: 3217145 heartbeat IPC: 3.10835 cumulative IPC: 3.10835 (Simulation time: 0 hr 1 min 31 sec) 
Heartbeat CPU 0 instructions: 20000000 cycles: 6532816 heartbeat IPC: 3.01598 cumulative IPC: 3.06147 (Simulation time: 0 hr 3 min 10 sec) 
Heartbeat CPU 0 instructions: 30000000 cycles: 9736179 heartbeat IPC: 3.12172 cumulative IPC: 3.08129 (Simulation time: 0 hr 4 min 38 sec) 
Heartbeat CPU 0 instructions: 40000001 cycles: 13149151 heartbeat IPC: 2.93 cumulative IPC: 3.04202 (Simulation time: 0 hr 6 min 12 sec) 
Heartbeat CPU 0 instructions: 50000003 cycles: 16868881 heartbeat IPC: 2.68837 cumulative IPC: 2.96404 (Simulation time: 0 hr 7 min 54 sec) 

Warmup complete CPU 0 instructions: 50000003 cycles: 16868881 (Simulation time: 0 hr 7 min 54 sec) 

Heartbeat CPU 0 instructions: 60000000 cycles: 26315137 heartbeat IPC: 1.05862 cumulative IPC: 1.05862 (Simulation time: 0 hr 9 min 36 sec) 
Heartbeat CPU 0 instructions: 70000003 cycles: 35537873 heartbeat IPC: 1.08428 cumulative IPC: 1.0713 (Simulation time: 0 hr 10 min 53 sec) 
Heartbeat CPU 0 instructions: 80000000 cycles: 45667861 heartbeat IPC: 0.987168 cumulative IPC: 1.0417 (Simulation time: 0 hr 12 min 17 sec) 
Heartbeat CPU 0 instructions: 90000001 cycles: 55895494 heartbeat IPC: 0.977743 cumulative IPC: 1.02494 (Simulation time: 0 hr 13 min 48 sec) 
Heartbeat CPU 0 instructions: 100000003 cycles: 66855157 heartbeat IPC: 0.912437 cumulative IPC: 1.00027 (Simulation time: 0 hr 15 min 8 sec) 
Finished CPU 0 instructions: 50000000 cycles: 49986276 cumulative IPC: 1.00027 (Simulation time: 0 hr 15 min 8 sec) 

ChampSim completed all CPUs

Region of Interest Statistics

CPU 0 cumulative IPC: 1.00027 instructions: 50000000 cycles: 49986276

SHEET
IPC : 1.00027

L1D TOTAL     ACCESS:   20028559  HIT:   18887652  MISS:    1140907
L1D LOAD      ACCESS:    7867622  HIT:    7337802  MISS:     529820
L1D RFO       ACCESS:    4553494  HIT:    4436119  MISS:     117375
L1D PREFETCH  ACCESS:    7607443  HIT:    7113731  MISS:     493712
L1D WRITEBACK ACCESS:          0  HIT:          0  MISS:          0
L1D PREFETCH  REQUESTED:    7927101  ISSUED:    7835478  USEFUL:     155463  USELESS:     338209
L1D AVERAGE MISS LATENCY: 54.0218 cycles
L1D

SHEET
L1D-total_access : 20028559
L1D-total_hit : 18887652
L1D-total_miss : 1140907
L1D-load_access : 7867622
L1D-load_hit : 7337802
L1D-load_miss : 529820
L1D-rfo_access : 4553494
L1D-rfo_hit : 4436119
L1D-rfo_miss : 117375
L1D-prefetch_access : 7607443
L1D-prefetch_hit : 7113731
L1D-prefetch_miss : 493712
L1D-writeback_access : 0
L1D-writeback_hit : 0
L1D-writeback_miss : 0
L1D-prefetch_requested : 7927101
L1D-prefetch_issued : 7835478
L1D-prefetch_useful : 155463
L1D-prefetch_useless : 338209
L1D-Avg_miss_latency : 54.0218
L1D-Morteza_fill_l2_prefetches : 0

L1I TOTAL     ACCESS:   16895975  HIT:   15308610  MISS:    1587365
L1I LOAD      ACCESS:    9301467  HIT:    9120010  MISS:     181457
L1I RFO       ACCESS:          0  HIT:          0  MISS:          0
L1I PREFETCH  ACCESS:    7594508  HIT:    6188600  MISS:    1405908
L1I WRITEBACK ACCESS:          0  HIT:          0  MISS:          0
L1I PREFETCH  REQUESTED:    7726381  ISSUED:    7701927  USEFUL:     899897  USELESS:     506097
L1I AVERAGE MISS LATENCY: 31.5517 cycles
L1I

SHEET
L1I-total_access : 16895975
L1I-total_hit : 15308610
L1I-total_miss : 1587365
L1I-load_access : 9301467
L1I-load_hit : 9120010
L1I-load_miss : 181457
L1I-rfo_access : 0
L1I-rfo_hit : 0
L1I-rfo_miss : 0
L1I-prefetch_access : 7594508
L1I-prefetch_hit : 6188600
L1I-prefetch_miss : 1405908
L1I-writeback_access : 0
L1I-writeback_hit : 0
L1I-writeback_miss : 0
L1I-prefetch_requested : 7726381
L1I-prefetch_issued : 7701927
L1I-prefetch_useful : 899897
L1I-prefetch_useless : 506097
L1I-Avg_miss_latency : 31.5517
L1I-Morteza_fill_l2_prefetches : 0

L2C TOTAL     ACCESS:    3677419  HIT:    2692528  MISS:     984891
L2C LOAD      ACCESS:     643320  HIT:     358442  MISS:     284878
L2C RFO       ACCESS:     114701  HIT:      39992  MISS:      74709
L2C PREFETCH  ACCESS:    2635114  HIT:    2010997  MISS:     624117
L2C WRITEBACK ACCESS:     284284  HIT:     283097  MISS:       1187
L2C PREFETCH  REQUESTED:    2948183  ISSUED:    2946471  USEFUL:      35201  USELESS:     586961
L2C AVERAGE MISS LATENCY: 75.7968 cycles
L2C

SHEET
L2C-total_access : 3677419
L2C-total_hit : 2692528
L2C-total_miss : 984891
L2C-load_access : 643320
L2C-load_hit : 358442
L2C-load_miss : 284878
L2C-rfo_access : 114701
L2C-rfo_hit : 39992
L2C-rfo_miss : 74709
L2C-prefetch_access : 2635114
L2C-prefetch_hit : 2010997
L2C-prefetch_miss : 624117
L2C-writeback_access : 284284
L2C-writeback_hit : 283097
L2C-writeback_miss : 1187
L2C-prefetch_requested : 2948183
L2C-prefetch_issued : 2946471
L2C-prefetch_useful : 35201
L2C-prefetch_useless : 586961
L2C-Avg_miss_latency : 75.7968
L2C-Morteza_fill_l2_prefetches : 670415

LLC TOTAL     ACCESS:    1952512  HIT:    1586797  MISS:     365715
LLC LOAD      ACCESS:     283679  HIT:     202251  MISS:      81428
LLC RFO       ACCESS:      74706  HIT:      32916  MISS:      41790
LLC PREFETCH  ACCESS:    1428338  HIT:    1187308  MISS:     241030
LLC WRITEBACK ACCESS:     165789  HIT:     164322  MISS:       1467
LLC PREFETCH  REQUESTED:          0  ISSUED:          0  USEFUL:      43936  USELESS:     187763
LLC AVERAGE MISS LATENCY: 178.87 cycles
LLC

SHEET
LLC-total_access : 1952512
LLC-total_hit : 1586797
LLC-total_miss : 365715
LLC-load_access : 283679
LLC-load_hit : 202251
LLC-load_miss : 81428
LLC-rfo_access : 74706
LLC-rfo_hit : 32916
LLC-rfo_miss : 41790
LLC-prefetch_access : 1428338
LLC-prefetch_hit : 1187308
LLC-prefetch_miss : 241030
LLC-writeback_access : 165789
LLC-writeback_hit : 164322
LLC-writeback_miss : 1467
LLC-prefetch_requested : 0
LLC-prefetch_issued : 0
LLC-prefetch_useful : 43936
LLC-prefetch_useless : 187763
LLC-Avg_miss_latency : 178.87
LLC-Morteza_fill_l2_prefetches : 704396

Major fault: 0 Minor fault: 7768



Printing Logs
morteza: start

SHEET
history_access_cntr : 6113024
index_access_cntr : 2102693
sab_access_cntr : 16973961
compactor_access_cntr : 15426315

morteza: end
CPU 0 L1D next line prefetcher final stats

DRAM Statistics
 CHANNEL 0
 RQ ROW_BUFFER_HIT:      79825  ROW_BUFFER_MISS:     284394
 DBUS_CONGESTED:     181264
 WQ ROW_BUFFER_HIT:      25608  ROW_BUFFER_MISS:      77688  FULL:          0

 AVG_CONGESTED_CYCLE: 5

CPU 0 Branch Prediction Accuracy: 95.439% MPKI: 9.02702 Average ROB Occupancy at Mispredict: 66.1672

Branch types
NOT_BRANCH: 40104066 80.2081%
BRANCH_DIRECT_JUMP: 497928 0.995856%
BRANCH_INDIRECT: 130587 0.261174%
BRANCH_CONDITIONAL: 7219014 14.438%
BRANCH_DIRECT_CALL: 625807 1.25161%
BRANCH_INDIRECT_CALL: 389787 0.779574%
BRANCH_RETURN: 1032747 2.06549%
BRANCH_OTHER: 0 0%

