Initialize SIGNATURE TABLE
ST_SET: 1
ST_WAY: 256
ST_TAG_BIT: 16
ST_TAG_MASK: ffff

Initialize PATTERN TABLE
PT_SET: 512
PT_WAY: 4
SIG_DELTA_BIT: 7
C_SIG_BIT: 4
C_DELTA_BIT: 4

Initialize PREFETCH FILTER
FILTER_SET: 1024

*** ChampSim Multicore Out-of-Order Simulator ***

Warmup Instructions: 50000000
Simulation Instructions: 50000000
Number of CPUs: 1
LLC sets: 2048
LLC ways: 16
Off-chip DRAM Size: 4096 MB Channels: 1 Width: 64-bit Data Rate: 3200 MT/s

CPU 0 runs /home/mbaradaran/ChampSim/dpc3_traces/server_039.champsimtrace.xz
CPU 0 L1D next line prefetcher
Heartbeat CPU 0 instructions: 10000003 cycles: 3451632 heartbeat IPC: 2.89718 cumulative IPC: 2.89718 (Simulation time: 0 hr 1 min 39 sec) 
Heartbeat CPU 0 instructions: 20000002 cycles: 6896323 heartbeat IPC: 2.90302 cumulative IPC: 2.9001 (Simulation time: 0 hr 3 min 14 sec) 
Heartbeat CPU 0 instructions: 30000001 cycles: 10342852 heartbeat IPC: 2.90147 cumulative IPC: 2.90055 (Simulation time: 0 hr 4 min 47 sec) 
Heartbeat CPU 0 instructions: 40000002 cycles: 13784843 heartbeat IPC: 2.9053 cumulative IPC: 2.90174 (Simulation time: 0 hr 6 min 21 sec) 
Heartbeat CPU 0 instructions: 50000001 cycles: 17226128 heartbeat IPC: 2.90589 cumulative IPC: 2.90257 (Simulation time: 0 hr 7 min 59 sec) 

Warmup complete CPU 0 instructions: 50000001 cycles: 17226128 (Simulation time: 0 hr 7 min 59 sec) 

Heartbeat CPU 0 instructions: 60000000 cycles: 22997585 heartbeat IPC: 1.73266 cumulative IPC: 1.73266 (Simulation time: 0 hr 9 min 46 sec) 
Heartbeat CPU 0 instructions: 70000000 cycles: 28765006 heartbeat IPC: 1.73388 cumulative IPC: 1.73327 (Simulation time: 0 hr 11 min 21 sec) 
Heartbeat CPU 0 instructions: 80000000 cycles: 34531619 heartbeat IPC: 1.73412 cumulative IPC: 1.73355 (Simulation time: 0 hr 12 min 51 sec) 
Heartbeat CPU 0 instructions: 90000001 cycles: 40300448 heartbeat IPC: 1.73345 cumulative IPC: 1.73353 (Simulation time: 0 hr 14 min 5 sec) 
Heartbeat CPU 0 instructions: 100000002 cycles: 46076260 heartbeat IPC: 1.73136 cumulative IPC: 1.73309 (Simulation time: 0 hr 15 min 18 sec) 
Finished CPU 0 instructions: 50000001 cycles: 28850132 cumulative IPC: 1.73309 (Simulation time: 0 hr 15 min 18 sec) 

ChampSim completed all CPUs

Region of Interest Statistics

CPU 0 cumulative IPC: 1.73309 instructions: 50000001 cycles: 28850132

SHEET
IPC : 1.73309

L1D TOTAL     ACCESS:   19887867  HIT:   19393114  MISS:     494753
L1D LOAD      ACCESS:    6492606  HIT:    6270947  MISS:     221659
L1D RFO       ACCESS:    7088311  HIT:    7021387  MISS:      66924
L1D PREFETCH  ACCESS:    6306950  HIT:    6100780  MISS:     206170
L1D WRITEBACK ACCESS:          0  HIT:          0  MISS:          0
L1D PREFETCH  REQUESTED:    6508657  ISSUED:    6376624  USEFUL:      50035  USELESS:     156139
L1D AVERAGE MISS LATENCY: 15.0202 cycles
L1D

SHEET
L1D-total_access : 19887867
L1D-total_hit : 19393114
L1D-total_miss : 494753
L1D-load_access : 6492606
L1D-load_hit : 6270947
L1D-load_miss : 221659
L1D-rfo_access : 7088311
L1D-rfo_hit : 7021387
L1D-rfo_miss : 66924
L1D-prefetch_access : 6306950
L1D-prefetch_hit : 6100780
L1D-prefetch_miss : 206170
L1D-writeback_access : 0
L1D-writeback_hit : 0
L1D-writeback_miss : 0
L1D-prefetch_requested : 6508657
L1D-prefetch_issued : 6376624
L1D-prefetch_useful : 50035
L1D-prefetch_useless : 156139
L1D-Avg_miss_latency : 15.0202
L1D-Morteza_fill_l2_prefetches : 0

L1I TOTAL     ACCESS:   16872341  HIT:   12436769  MISS:    4435572
L1I LOAD      ACCESS:    9308586  HIT:    9172976  MISS:     135610
L1I RFO       ACCESS:          0  HIT:          0  MISS:          0
L1I PREFETCH  ACCESS:    7563755  HIT:    3263793  MISS:    4299962
L1I WRITEBACK ACCESS:          0  HIT:          0  MISS:          0
L1I PREFETCH  REQUESTED:    7710754  ISSUED:    7710745  USEFUL:    3944185  USELESS:     355782
L1I AVERAGE MISS LATENCY: 14.0659 cycles
L1I

SHEET
L1I-total_access : 16872341
L1I-total_hit : 12436769
L1I-total_miss : 4435572
L1I-load_access : 9308586
L1I-load_hit : 9172976
L1I-load_miss : 135610
L1I-rfo_access : 0
L1I-rfo_hit : 0
L1I-rfo_miss : 0
L1I-prefetch_access : 7563755
L1I-prefetch_hit : 3263793
L1I-prefetch_miss : 4299962
L1I-writeback_access : 0
L1I-writeback_hit : 0
L1I-writeback_miss : 0
L1I-prefetch_requested : 7710754
L1I-prefetch_issued : 7710745
L1I-prefetch_useful : 3944185
L1I-prefetch_useless : 355782
L1I-Avg_miss_latency : 14.0659
L1I-Morteza_fill_l2_prefetches : 0

L2C TOTAL     ACCESS:    6799026  HIT:    6798751  MISS:        275
L2C LOAD      ACCESS:     273383  HIT:     273378  MISS:          5
L2C RFO       ACCESS:      66752  HIT:      66752  MISS:          0
L2C PREFETCH  ACCESS:    6278793  HIT:    6278523  MISS:        270
L2C WRITEBACK ACCESS:     180098  HIT:     180098  MISS:          0
L2C PREFETCH  REQUESTED:    4548056  ISSUED:    4546756  USEFUL:          1  USELESS:          3
L2C AVERAGE MISS LATENCY: 34.0727 cycles
L2C

SHEET
L2C-total_access : 6799026
L2C-total_hit : 6798751
L2C-total_miss : 275
L2C-load_access : 273383
L2C-load_hit : 273378
L2C-load_miss : 5
L2C-rfo_access : 66752
L2C-rfo_hit : 66752
L2C-rfo_miss : 0
L2C-prefetch_access : 6278793
L2C-prefetch_hit : 6278523
L2C-prefetch_miss : 270
L2C-writeback_access : 180098
L2C-writeback_hit : 180098
L2C-writeback_miss : 0
L2C-prefetch_requested : 4548056
L2C-prefetch_issued : 4546756
L2C-prefetch_useful : 1
L2C-prefetch_useless : 3
L2C-Avg_miss_latency : 34.0727
L2C-Morteza_fill_l2_prefetches : 1708450

LLC TOTAL     ACCESS:     647298  HIT:     646542  MISS:        756
LLC LOAD      ACCESS:          5  HIT:          4  MISS:          1
LLC RFO       ACCESS:          0  HIT:          0  MISS:          0
LLC PREFETCH  ACCESS:     647291  HIT:     646536  MISS:        755
LLC WRITEBACK ACCESS:          2  HIT:          2  MISS:          0
LLC PREFETCH  REQUESTED:          0  ISSUED:          0  USEFUL:          2  USELESS:          0
LLC AVERAGE MISS LATENCY: 165.898 cycles
LLC

SHEET
LLC-total_access : 647298
LLC-total_hit : 646542
LLC-total_miss : 756
LLC-load_access : 5
LLC-load_hit : 4
LLC-load_miss : 1
LLC-rfo_access : 0
LLC-rfo_hit : 0
LLC-rfo_miss : 0
LLC-prefetch_access : 647291
LLC-prefetch_hit : 646536
LLC-prefetch_miss : 755
LLC-writeback_access : 2
LLC-writeback_hit : 2
LLC-writeback_miss : 0
LLC-prefetch_requested : 0
LLC-prefetch_issued : 0
LLC-prefetch_useful : 2
LLC-prefetch_useless : 0
LLC-Avg_miss_latency : 165.898
LLC-Morteza_fill_l2_prefetches : 646536

Major fault: 0 Minor fault: 356



Printing Logs
morteza: start

SHEET
history_access_cntr : 8559317
index_access_cntr : 3708978
sab_access_cntr : 18701261
compactor_access_cntr : 17655253

morteza: end
CPU 0 L1D next line prefetcher final stats

DRAM Statistics
 CHANNEL 0
 RQ ROW_BUFFER_HIT:         80  ROW_BUFFER_MISS:        676
 DBUS_CONGESTED:         59
 WQ ROW_BUFFER_HIT:          0  ROW_BUFFER_MISS:          0  FULL:          0

 AVG_CONGESTED_CYCLE: 6

CPU 0 Branch Prediction Accuracy: 99.9091% MPKI: 0.1547 Average ROB Occupancy at Mispredict: 296.378

Branch types
NOT_BRANCH: 41495035 82.9901%
BRANCH_DIRECT_JUMP: 491309 0.982618%
BRANCH_INDIRECT: 0 0%
BRANCH_CONDITIONAL: 5595262 11.1905%
BRANCH_DIRECT_CALL: 1028409 2.05682%
BRANCH_INDIRECT_CALL: 180757 0.361514%
BRANCH_RETURN: 1209170 2.41834%
BRANCH_OTHER: 0 0%

