Initialize SIGNATURE TABLE
ST_SET: 1
ST_WAY: 256
ST_TAG_BIT: 16
ST_TAG_MASK: ffff

Initialize PATTERN TABLE
PT_SET: 512
PT_WAY: 4
SIG_DELTA_BIT: 7
C_SIG_BIT: 4
C_DELTA_BIT: 4

Initialize PREFETCH FILTER
FILTER_SET: 1024

*** ChampSim Multicore Out-of-Order Simulator ***

Warmup Instructions: 50000000
Simulation Instructions: 50000000
Number of CPUs: 1
LLC sets: 2048
LLC ways: 16
Off-chip DRAM Size: 4096 MB Channels: 1 Width: 64-bit Data Rate: 3200 MT/s

CPU 0 runs /home/mbaradaran/ChampSim/dpc3_traces/server_032.champsimtrace.xz
CPU 0 L1D next line prefetcher
Heartbeat CPU 0 instructions: 10000002 cycles: 3520754 heartbeat IPC: 2.8403 cumulative IPC: 2.8403 (Simulation time: 0 hr 1 min 42 sec) 
Heartbeat CPU 0 instructions: 20000003 cycles: 7042313 heartbeat IPC: 2.83965 cumulative IPC: 2.83998 (Simulation time: 0 hr 3 min 22 sec) 
Heartbeat CPU 0 instructions: 30000000 cycles: 10563823 heartbeat IPC: 2.83969 cumulative IPC: 2.83988 (Simulation time: 0 hr 5 min 8 sec) 
Heartbeat CPU 0 instructions: 40000003 cycles: 14086338 heartbeat IPC: 2.83888 cumulative IPC: 2.83963 (Simulation time: 0 hr 6 min 35 sec) 
Heartbeat CPU 0 instructions: 50000000 cycles: 17607783 heartbeat IPC: 2.83974 cumulative IPC: 2.83965 (Simulation time: 0 hr 8 min 12 sec) 

Warmup complete CPU 0 instructions: 50000004 cycles: 17607784 (Simulation time: 0 hr 8 min 12 sec) 

Heartbeat CPU 0 instructions: 60000002 cycles: 24346611 heartbeat IPC: 1.48394 cumulative IPC: 1.48394 (Simulation time: 0 hr 9 min 55 sec) 
Heartbeat CPU 0 instructions: 70000000 cycles: 31091825 heartbeat IPC: 1.48253 cumulative IPC: 1.48323 (Simulation time: 0 hr 11 min 36 sec) 
*** Reached end of trace for Core: 0 Repeating trace: /home/mbaradaran/ChampSim/dpc3_traces/server_032.champsimtrace.xz
Heartbeat CPU 0 instructions: 80000003 cycles: 37840917 heartbeat IPC: 1.48168 cumulative IPC: 1.48272 (Simulation time: 0 hr 13 min 19 sec) 
Heartbeat CPU 0 instructions: 90000002 cycles: 44564905 heartbeat IPC: 1.48721 cumulative IPC: 1.48384 (Simulation time: 0 hr 14 min 49 sec) 
Heartbeat CPU 0 instructions: 100000001 cycles: 51311143 heartbeat IPC: 1.48231 cumulative IPC: 1.48353 (Simulation time: 0 hr 16 min 13 sec) 
Finished CPU 0 instructions: 50000002 cycles: 33703361 cumulative IPC: 1.48353 (Simulation time: 0 hr 16 min 13 sec) 

ChampSim completed all CPUs

Region of Interest Statistics

CPU 0 cumulative IPC: 1.48353 instructions: 50000002 cycles: 33703361

SHEET
IPC : 1.48353

L1D TOTAL     ACCESS:   19833694  HIT:   18005484  MISS:    1828210
L1D LOAD      ACCESS:    6781109  HIT:    5987225  MISS:     793884
L1D RFO       ACCESS:    6552527  HIT:    6258703  MISS:     293824
L1D PREFETCH  ACCESS:    6500058  HIT:    5759556  MISS:     740502
L1D WRITEBACK ACCESS:          0  HIT:          0  MISS:          0
L1D PREFETCH  REQUESTED:    6830934  ISSUED:    6693751  USEFUL:     170693  USELESS:     569808
L1D AVERAGE MISS LATENCY: 19.0249 cycles
L1D

SHEET
L1D-total_access : 19833694
L1D-total_hit : 18005484
L1D-total_miss : 1828210
L1D-load_access : 6781109
L1D-load_hit : 5987225
L1D-load_miss : 793884
L1D-rfo_access : 6552527
L1D-rfo_hit : 6258703
L1D-rfo_miss : 293824
L1D-prefetch_access : 6500058
L1D-prefetch_hit : 5759556
L1D-prefetch_miss : 740502
L1D-writeback_access : 0
L1D-writeback_hit : 0
L1D-writeback_miss : 0
L1D-prefetch_requested : 6830934
L1D-prefetch_issued : 6693751
L1D-prefetch_useful : 170693
L1D-prefetch_useless : 569808
L1D-Avg_miss_latency : 19.0249
L1D-Morteza_fill_l2_prefetches : 0

L1I TOTAL     ACCESS:   16270503  HIT:   12670612  MISS:    3599891
L1I LOAD      ACCESS:    9663304  HIT:    9507855  MISS:     155449
L1I RFO       ACCESS:          0  HIT:          0  MISS:          0
L1I PREFETCH  ACCESS:    6607199  HIT:    3162757  MISS:    3444442
L1I WRITEBACK ACCESS:          0  HIT:          0  MISS:          0
L1I PREFETCH  REQUESTED:    6764476  ISSUED:    6764369  USEFUL:    3145815  USELESS:     298623
L1I AVERAGE MISS LATENCY: 16.567 cycles
L1I

SHEET
L1I-total_access : 16270503
L1I-total_hit : 12670612
L1I-total_miss : 3599891
L1I-load_access : 9663304
L1I-load_hit : 9507855
L1I-load_miss : 155449
L1I-rfo_access : 0
L1I-rfo_hit : 0
L1I-rfo_miss : 0
L1I-prefetch_access : 6607199
L1I-prefetch_hit : 3162757
L1I-prefetch_miss : 3444442
L1I-writeback_access : 0
L1I-writeback_hit : 0
L1I-writeback_miss : 0
L1I-prefetch_requested : 6764476
L1I-prefetch_issued : 6764369
L1I-prefetch_useful : 3145815
L1I-prefetch_useless : 298623
L1I-Avg_miss_latency : 16.567
L1I-Morteza_fill_l2_prefetches : 0

L2C TOTAL     ACCESS:    7517460  HIT:    6938571  MISS:     578889
L2C LOAD      ACCESS:     800612  HIT:     711683  MISS:      88929
L2C RFO       ACCESS:     292522  HIT:     242586  MISS:      49936
L2C PREFETCH  ACCESS:    5787883  HIT:    5356835  MISS:     431048
L2C WRITEBACK ACCESS:     636443  HIT:     627467  MISS:       8976
L2C PREFETCH  REQUESTED:    6669244  ISSUED:    6651929  USEFUL:       7351  USELESS:     423565
L2C AVERAGE MISS LATENCY: 33.5375 cycles
L2C

SHEET
L2C-total_access : 7517460
L2C-total_hit : 6938571
L2C-total_miss : 578889
L2C-load_access : 800612
L2C-load_hit : 711683
L2C-load_miss : 88929
L2C-rfo_access : 292522
L2C-rfo_hit : 242586
L2C-rfo_miss : 49936
L2C-prefetch_access : 5787883
L2C-prefetch_hit : 5356835
L2C-prefetch_miss : 431048
L2C-writeback_access : 636443
L2C-writeback_hit : 627467
L2C-writeback_miss : 8976
L2C-prefetch_requested : 6669244
L2C-prefetch_issued : 6651929
L2C-prefetch_useful : 7351
L2C-prefetch_useless : 423565
L2C-Avg_miss_latency : 33.5375
L2C-Morteza_fill_l2_prefetches : 1472724

LLC TOTAL     ACCESS:    2381058  HIT:    2371996  MISS:       9062
LLC LOAD      ACCESS:      88922  HIT:      88348  MISS:        574
LLC RFO       ACCESS:      49936  HIT:      49936  MISS:          0
LLC PREFETCH  ACCESS:    2148514  HIT:    2140057  MISS:       8457
LLC WRITEBACK ACCESS:      93686  HIT:      93655  MISS:         31
LLC PREFETCH  REQUESTED:          0  ISSUED:          0  USEFUL:        402  USELESS:       3207
LLC AVERAGE MISS LATENCY: 154.545 cycles
LLC

SHEET
LLC-total_access : 2381058
LLC-total_hit : 2371996
LLC-total_miss : 9062
LLC-load_access : 88922
LLC-load_hit : 88348
LLC-load_miss : 574
LLC-rfo_access : 49936
LLC-rfo_hit : 49936
LLC-rfo_miss : 0
LLC-prefetch_access : 2148514
LLC-prefetch_hit : 2140057
LLC-prefetch_miss : 8457
LLC-writeback_access : 93686
LLC-writeback_hit : 93655
LLC-writeback_miss : 31
LLC-prefetch_requested : 0
LLC-prefetch_issued : 0
LLC-prefetch_useful : 402
LLC-prefetch_useless : 3207
LLC-Avg_miss_latency : 154.545
LLC-Morteza_fill_l2_prefetches : 1718534

Major fault: 0 Minor fault: 1178



Printing Logs
morteza: start

SHEET
history_access_cntr : 7702908
index_access_cntr : 3290115
sab_access_cntr : 18279117
compactor_access_cntr : 17581500

morteza: end
CPU 0 L1D next line prefetcher final stats

DRAM Statistics
 CHANNEL 0
 RQ ROW_BUFFER_HIT:       1974  ROW_BUFFER_MISS:       7057
 DBUS_CONGESTED:       1181
 WQ ROW_BUFFER_HIT:          0  ROW_BUFFER_MISS:         12  FULL:          0

 AVG_CONGESTED_CYCLE: 5

CPU 0 Branch Prediction Accuracy: 99.8762% MPKI: 0.2296 Average ROB Occupancy at Mispredict: 190.058

Branch types
NOT_BRANCH: 40726154 81.4523%
BRANCH_DIRECT_JUMP: 508374 1.01675%
BRANCH_INDIRECT: 180051 0.360102%
BRANCH_CONDITIONAL: 5999665 11.9993%
BRANCH_DIRECT_CALL: 1086739 2.17348%
BRANCH_INDIRECT_CALL: 206109 0.412218%
BRANCH_RETURN: 1292837 2.58567%
BRANCH_OTHER: 0 0%

