Initialize SIGNATURE TABLE
ST_SET: 1
ST_WAY: 256
ST_TAG_BIT: 16
ST_TAG_MASK: ffff

Initialize PATTERN TABLE
PT_SET: 512
PT_WAY: 4
SIG_DELTA_BIT: 7
C_SIG_BIT: 4
C_DELTA_BIT: 4

Initialize PREFETCH FILTER
FILTER_SET: 1024

*** ChampSim Multicore Out-of-Order Simulator ***

Warmup Instructions: 50000000
Simulation Instructions: 50000000
Number of CPUs: 1
LLC sets: 2048
LLC ways: 16
Off-chip DRAM Size: 4096 MB Channels: 1 Width: 64-bit Data Rate: 3200 MT/s

CPU 0 runs /home/mbaradaran/ChampSim/dpc3_traces/server_019.champsimtrace.xz
CPU 0 L1D next line prefetcher
Heartbeat CPU 0 instructions: 10000002 cycles: 3621867 heartbeat IPC: 2.76101 cumulative IPC: 2.76101 (Simulation time: 0 hr 1 min 43 sec) 
Heartbeat CPU 0 instructions: 20000003 cycles: 7244965 heartbeat IPC: 2.76007 cumulative IPC: 2.76054 (Simulation time: 0 hr 3 min 29 sec) 
Heartbeat CPU 0 instructions: 30000002 cycles: 10866868 heartbeat IPC: 2.76098 cumulative IPC: 2.76069 (Simulation time: 0 hr 5 min 21 sec) 
Heartbeat CPU 0 instructions: 40000002 cycles: 14500723 heartbeat IPC: 2.7519 cumulative IPC: 2.75848 (Simulation time: 0 hr 7 min 15 sec) 
Heartbeat CPU 0 instructions: 50000001 cycles: 18122965 heartbeat IPC: 2.76072 cumulative IPC: 2.75893 (Simulation time: 0 hr 9 min 5 sec) 

Warmup complete CPU 0 instructions: 50000001 cycles: 18122965 (Simulation time: 0 hr 9 min 5 sec) 

Heartbeat CPU 0 instructions: 60000000 cycles: 37884061 heartbeat IPC: 0.506045 cumulative IPC: 0.506045 (Simulation time: 0 hr 11 min 27 sec) 
Heartbeat CPU 0 instructions: 70000002 cycles: 61335064 heartbeat IPC: 0.426421 cumulative IPC: 0.462833 (Simulation time: 0 hr 13 min 33 sec) 
Heartbeat CPU 0 instructions: 80000001 cycles: 81603886 heartbeat IPC: 0.493369 cumulative IPC: 0.472583 (Simulation time: 0 hr 15 min 58 sec) 
Heartbeat CPU 0 instructions: 90000002 cycles: 99187553 heartbeat IPC: 0.56871 cumulative IPC: 0.493434 (Simulation time: 0 hr 18 min 29 sec) 
Heartbeat CPU 0 instructions: 100000002 cycles: 116672825 heartbeat IPC: 0.57191 cumulative IPC: 0.507357 (Simulation time: 0 hr 20 min 54 sec) 
Finished CPU 0 instructions: 50000001 cycles: 98549860 cumulative IPC: 0.507357 (Simulation time: 0 hr 20 min 54 sec) 

ChampSim completed all CPUs

Region of Interest Statistics

CPU 0 cumulative IPC: 0.507357 instructions: 50000001 cycles: 98549860

SHEET
IPC : 0.507357

L1D TOTAL     ACCESS:   18316838  HIT:   16093231  MISS:    2223607
L1D LOAD      ACCESS:    6981627  HIT:    6229309  MISS:     752318
L1D RFO       ACCESS:    5512469  HIT:    4610374  MISS:     902095
L1D PREFETCH  ACCESS:    5822742  HIT:    5253548  MISS:     569194
L1D WRITEBACK ACCESS:          0  HIT:          0  MISS:          0
L1D PREFETCH  REQUESTED:    7019343  ISSUED:    6833170  USEFUL:     199979  USELESS:     369124
L1D AVERAGE MISS LATENCY: 185.06 cycles
L1D

SHEET
L1D-total_access : 18316838
L1D-total_hit : 16093231
L1D-total_miss : 2223607
L1D-load_access : 6981627
L1D-load_hit : 6229309
L1D-load_miss : 752318
L1D-rfo_access : 5512469
L1D-rfo_hit : 4610374
L1D-rfo_miss : 902095
L1D-prefetch_access : 5822742
L1D-prefetch_hit : 5253548
L1D-prefetch_miss : 569194
L1D-writeback_access : 0
L1D-writeback_hit : 0
L1D-writeback_miss : 0
L1D-prefetch_requested : 7019343
L1D-prefetch_issued : 6833170
L1D-prefetch_useful : 199979
L1D-prefetch_useless : 369124
L1D-Avg_miss_latency : 185.06
L1D-Morteza_fill_l2_prefetches : 0

L1I TOTAL     ACCESS:   14791042  HIT:   12553543  MISS:    2237499
L1I LOAD      ACCESS:    9828833  HIT:    9751488  MISS:      77345
L1I RFO       ACCESS:          0  HIT:          0  MISS:          0
L1I PREFETCH  ACCESS:    4962209  HIT:    2802055  MISS:    2160154
L1I WRITEBACK ACCESS:          0  HIT:          0  MISS:          0
L1I PREFETCH  REQUESTED:    5035937  ISSUED:    5033925  USEFUL:    2053636  USELESS:     106537
L1I AVERAGE MISS LATENCY: 18.1578 cycles
L1I

SHEET
L1I-total_access : 14791042
L1I-total_hit : 12553543
L1I-total_miss : 2237499
L1I-load_access : 9828833
L1I-load_hit : 9751488
L1I-load_miss : 77345
L1I-rfo_access : 0
L1I-rfo_hit : 0
L1I-rfo_miss : 0
L1I-prefetch_access : 4962209
L1I-prefetch_hit : 2802055
L1I-prefetch_miss : 2160154
L1I-writeback_access : 0
L1I-writeback_hit : 0
L1I-writeback_miss : 0
L1I-prefetch_requested : 5035937
L1I-prefetch_issued : 5033925
L1I-prefetch_useful : 2053636
L1I-prefetch_useless : 106537
L1I-Avg_miss_latency : 18.1578
L1I-Morteza_fill_l2_prefetches : 0

L2C TOTAL     ACCESS:    6610125  HIT:    4723120  MISS:    1887005
L2C LOAD      ACCESS:     587906  HIT:     252180  MISS:     335726
L2C RFO       ACCESS:     901500  HIT:      18305  MISS:     883195
L2C PREFETCH  ACCESS:    3946096  HIT:    3280373  MISS:     665723
L2C WRITEBACK ACCESS:    1174623  HIT:    1172262  MISS:       2361
L2C PREFETCH  REQUESTED:    4115080  ISSUED:    4111989  USEFUL:      23348  USELESS:     640982
L2C AVERAGE MISS LATENCY: 220.935 cycles
L2C

SHEET
L2C-total_access : 6610125
L2C-total_hit : 4723120
L2C-total_miss : 1887005
L2C-load_access : 587906
L2C-load_hit : 252180
L2C-load_miss : 335726
L2C-rfo_access : 901500
L2C-rfo_hit : 18305
L2C-rfo_miss : 883195
L2C-prefetch_access : 3946096
L2C-prefetch_hit : 3280373
L2C-prefetch_miss : 665723
L2C-writeback_access : 1174623
L2C-writeback_hit : 1172262
L2C-writeback_miss : 2361
L2C-prefetch_requested : 4115080
L2C-prefetch_issued : 4111989
L2C-prefetch_useful : 23348
L2C-prefetch_useless : 640982
L2C-Avg_miss_latency : 220.935
L2C-Morteza_fill_l2_prefetches : 980389

LLC TOTAL     ACCESS:    4228695  HIT:    2546972  MISS:    1681723
LLC LOAD      ACCESS:     335671  HIT:     170650  MISS:     165021
LLC RFO       ACCESS:     883181  HIT:     114918  MISS:     768263
LLC PREFETCH  ACCESS:    1899385  HIT:    1153802  MISS:     745583
LLC WRITEBACK ACCESS:    1110458  HIT:    1107602  MISS:       2856
LLC PREFETCH  REQUESTED:          0  ISSUED:          0  USEFUL:      57398  USELESS:     686574
LLC AVERAGE MISS LATENCY: 271.815 cycles
LLC

SHEET
LLC-total_access : 4228695
LLC-total_hit : 2546972
LLC-total_miss : 1681723
LLC-load_access : 335671
LLC-load_hit : 170650
LLC-load_miss : 165021
LLC-rfo_access : 883181
LLC-rfo_hit : 114918
LLC-rfo_miss : 768263
LLC-prefetch_access : 1899385
LLC-prefetch_hit : 1153802
LLC-prefetch_miss : 745583
LLC-writeback_access : 1110458
LLC-writeback_hit : 1107602
LLC-writeback_miss : 2856
LLC-prefetch_requested : 0
LLC-prefetch_issued : 0
LLC-prefetch_useful : 57398
LLC-prefetch_useless : 686574
LLC-Avg_miss_latency : 271.815
LLC-Morteza_fill_l2_prefetches : 846211

Major fault: 0 Minor fault: 25691



Printing Logs
morteza: start

SHEET
history_access_cntr : 5833577
index_access_cntr : 2487843
sab_access_cntr : 16220959
compactor_access_cntr : 15584212

morteza: end
CPU 0 L1D next line prefetcher final stats

DRAM Statistics
 CHANNEL 0
 RQ ROW_BUFFER_HIT:     398245  ROW_BUFFER_MISS:    1280346
 DBUS_CONGESTED:    1660344
 WQ ROW_BUFFER_HIT:     258104  ROW_BUFFER_MISS:     679400  FULL:          0

 AVG_CONGESTED_CYCLE: 6

CPU 0 Branch Prediction Accuracy: 99.2186% MPKI: 1.32192 Average ROB Occupancy at Mispredict: 178.684

Branch types
NOT_BRANCH: 41540785 83.0816%
BRANCH_DIRECT_JUMP: 462384 0.924768%
BRANCH_INDIRECT: 45460 0.09092%
BRANCH_CONDITIONAL: 6209281 12.4186%
BRANCH_DIRECT_CALL: 666241 1.33248%
BRANCH_INDIRECT_CALL: 204728 0.409456%
BRANCH_RETURN: 870978 1.74196%
BRANCH_OTHER: 0 0%

