Initialize SIGNATURE TABLE
ST_SET: 1
ST_WAY: 256
ST_TAG_BIT: 16
ST_TAG_MASK: ffff

Initialize PATTERN TABLE
PT_SET: 512
PT_WAY: 4
SIG_DELTA_BIT: 7
C_SIG_BIT: 4
C_DELTA_BIT: 4

Initialize PREFETCH FILTER
FILTER_SET: 1024

*** ChampSim Multicore Out-of-Order Simulator ***

Warmup Instructions: 50000000
Simulation Instructions: 50000000
Number of CPUs: 1
LLC sets: 2048
LLC ways: 16
Off-chip DRAM Size: 4096 MB Channels: 1 Width: 64-bit Data Rate: 3200 MT/s

CPU 0 runs /home/mbaradaran/ChampSim/dpc3_traces/server_004.champsimtrace.xz
CPU 0 L1D next line prefetcher
Heartbeat CPU 0 instructions: 10000002 cycles: 3225484 heartbeat IPC: 3.10031 cumulative IPC: 3.10031 (Simulation time: 0 hr 1 min 28 sec) 
Heartbeat CPU 0 instructions: 20000002 cycles: 6558617 heartbeat IPC: 3.00018 cumulative IPC: 3.04942 (Simulation time: 0 hr 3 min 1 sec) 
Heartbeat CPU 0 instructions: 30000000 cycles: 11677798 heartbeat IPC: 1.95344 cumulative IPC: 2.56898 (Simulation time: 0 hr 5 min 5 sec) 
Heartbeat CPU 0 instructions: 40000003 cycles: 15425115 heartbeat IPC: 2.66858 cumulative IPC: 2.59317 (Simulation time: 0 hr 6 min 50 sec) 
Heartbeat CPU 0 instructions: 50000003 cycles: 18650781 heartbeat IPC: 3.10014 cumulative IPC: 2.68085 (Simulation time: 0 hr 8 min 26 sec) 

Warmup complete CPU 0 instructions: 50000003 cycles: 18650781 (Simulation time: 0 hr 8 min 26 sec) 

Heartbeat CPU 0 instructions: 60000002 cycles: 27283529 heartbeat IPC: 1.15838 cumulative IPC: 1.15838 (Simulation time: 0 hr 9 min 59 sec) 
Heartbeat CPU 0 instructions: 70000000 cycles: 35389438 heartbeat IPC: 1.23367 cumulative IPC: 1.19484 (Simulation time: 0 hr 11 min 36 sec) 
Heartbeat CPU 0 instructions: 80000001 cycles: 56373686 heartbeat IPC: 0.476548 cumulative IPC: 0.795273 (Simulation time: 0 hr 14 min 13 sec) 
Heartbeat CPU 0 instructions: 90000003 cycles: 72061530 heartbeat IPC: 0.637436 cumulative IPC: 0.748913 (Simulation time: 0 hr 16 min 3 sec) 
Heartbeat CPU 0 instructions: 100000003 cycles: 80982408 heartbeat IPC: 1.12097 cumulative IPC: 0.802161 (Simulation time: 0 hr 17 min 28 sec) 
Finished CPU 0 instructions: 50000000 cycles: 62331627 cumulative IPC: 0.802161 (Simulation time: 0 hr 17 min 28 sec) 

ChampSim completed all CPUs

Region of Interest Statistics

CPU 0 cumulative IPC: 0.802161 instructions: 50000000 cycles: 62331627

SHEET
IPC : 0.802161

L1D TOTAL     ACCESS:   21677904  HIT:   17606752  MISS:    4071152
L1D LOAD      ACCESS:    8621718  HIT:    6603536  MISS:    2018182
L1D RFO       ACCESS:    4643254  HIT:    4536439  MISS:     106815
L1D PREFETCH  ACCESS:    8412932  HIT:    6466777  MISS:    1946155
L1D WRITEBACK ACCESS:          0  HIT:          0  MISS:          0
L1D PREFETCH  REQUESTED:    8656532  ISSUED:    8567156  USEFUL:     106477  USELESS:    1839672
L1D AVERAGE MISS LATENCY: 22.7564 cycles
L1D

SHEET
L1D-total_access : 21677904
L1D-total_hit : 17606752
L1D-total_miss : 4071152
L1D-load_access : 8621718
L1D-load_hit : 6603536
L1D-load_miss : 2018182
L1D-rfo_access : 4643254
L1D-rfo_hit : 4536439
L1D-rfo_miss : 106815
L1D-prefetch_access : 8412932
L1D-prefetch_hit : 6466777
L1D-prefetch_miss : 1946155
L1D-writeback_access : 0
L1D-writeback_hit : 0
L1D-writeback_miss : 0
L1D-prefetch_requested : 8656532
L1D-prefetch_issued : 8567156
L1D-prefetch_useful : 106477
L1D-prefetch_useless : 1839672
L1D-Avg_miss_latency : 22.7564
L1D-Morteza_fill_l2_prefetches : 0

L1I TOTAL     ACCESS:   19936945  HIT:   18323333  MISS:    1613612
L1I LOAD      ACCESS:   10709582  HIT:   10538793  MISS:     170789
L1I RFO       ACCESS:          0  HIT:          0  MISS:          0
L1I PREFETCH  ACCESS:    9227363  HIT:    7784540  MISS:    1442823
L1I WRITEBACK ACCESS:          0  HIT:          0  MISS:          0
L1I PREFETCH  REQUESTED:    9357765  ISSUED:    9331117  USEFUL:    1032098  USELESS:     410720
L1I AVERAGE MISS LATENCY: 31.2872 cycles
L1I

SHEET
L1I-total_access : 19936945
L1I-total_hit : 18323333
L1I-total_miss : 1613612
L1I-load_access : 10709582
L1I-load_hit : 10538793
L1I-load_miss : 170789
L1I-rfo_access : 0
L1I-rfo_hit : 0
L1I-rfo_miss : 0
L1I-prefetch_access : 9227363
L1I-prefetch_hit : 7784540
L1I-prefetch_miss : 1442823
L1I-writeback_access : 0
L1I-writeback_hit : 0
L1I-writeback_miss : 0
L1I-prefetch_requested : 9357765
L1I-prefetch_issued : 9331117
L1I-prefetch_useful : 1032098
L1I-prefetch_useless : 410720
L1I-Avg_miss_latency : 31.2872
L1I-Morteza_fill_l2_prefetches : 0

L2C TOTAL     ACCESS:    7234029  HIT:    6198672  MISS:    1035357
L2C LOAD      ACCESS:    2117775  HIT:    1849490  MISS:     268285
L2C RFO       ACCESS:     105592  HIT:      56878  MISS:      48714
L2C PREFETCH  ACCESS:    4765627  HIT:    4048568  MISS:     717059
L2C WRITEBACK ACCESS:     245035  HIT:     243736  MISS:       1299
L2C PREFETCH  REQUESTED:    6871359  ISSUED:    6869365  USEFUL:      31833  USELESS:     684736
L2C AVERAGE MISS LATENCY: 56.5597 cycles
L2C

SHEET
L2C-total_access : 7234029
L2C-total_hit : 6198672
L2C-total_miss : 1035357
L2C-load_access : 2117775
L2C-load_hit : 1849490
L2C-load_miss : 268285
L2C-rfo_access : 105592
L2C-rfo_hit : 56878
L2C-rfo_miss : 48714
L2C-prefetch_access : 4765627
L2C-prefetch_hit : 4048568
L2C-prefetch_miss : 717059
L2C-writeback_access : 245035
L2C-writeback_hit : 243736
L2C-writeback_miss : 1299
L2C-prefetch_requested : 6871359
L2C-prefetch_issued : 6869365
L2C-prefetch_useful : 31833
L2C-prefetch_useless : 684736
L2C-Avg_miss_latency : 56.5597
L2C-Morteza_fill_l2_prefetches : 1305555

LLC TOTAL     ACCESS:    2448033  HIT:    2218748  MISS:     229285
LLC LOAD      ACCESS:     266723  HIT:     215077  MISS:      51646
LLC RFO       ACCESS:      48709  HIT:      33414  MISS:      15295
LLC PREFETCH  ACCESS:    1992548  HIT:    1830557  MISS:     161991
LLC WRITEBACK ACCESS:     140053  HIT:     139700  MISS:        353
LLC PREFETCH  REQUESTED:          0  ISSUED:          0  USEFUL:      27446  USELESS:     133103
LLC AVERAGE MISS LATENCY: 168.514 cycles
LLC

SHEET
LLC-total_access : 2448033
LLC-total_hit : 2218748
LLC-total_miss : 229285
LLC-load_access : 266723
LLC-load_hit : 215077
LLC-load_miss : 51646
LLC-rfo_access : 48709
LLC-rfo_hit : 33414
LLC-rfo_miss : 15295
LLC-prefetch_access : 1992548
LLC-prefetch_hit : 1830557
LLC-prefetch_miss : 161991
LLC-writeback_access : 140053
LLC-writeback_hit : 139700
LLC-writeback_miss : 353
LLC-prefetch_requested : 0
LLC-prefetch_issued : 0
LLC-prefetch_useful : 27446
LLC-prefetch_useless : 133103
LLC-Avg_miss_latency : 168.514
LLC-Morteza_fill_l2_prefetches : 1222015

Major fault: 0 Minor fault: 7592



Printing Logs
morteza: start

SHEET
history_access_cntr : 6831198
index_access_cntr : 2462425
sab_access_cntr : 18688432
compactor_access_cntr : 17280823

morteza: end
CPU 0 L1D next line prefetcher final stats

DRAM Statistics
 CHANNEL 0
 RQ ROW_BUFFER_HIT:      45463  ROW_BUFFER_MISS:     183442
 DBUS_CONGESTED:      94139
 WQ ROW_BUFFER_HIT:      11888  ROW_BUFFER_MISS:      43093  FULL:          0

 AVG_CONGESTED_CYCLE: 5

CPU 0 Branch Prediction Accuracy: 98.1603% MPKI: 3.89124 Average ROB Occupancy at Mispredict: 63.6134

Branch types
NOT_BRANCH: 39423755 78.8475%
BRANCH_DIRECT_JUMP: 551642 1.10328%
BRANCH_INDIRECT: 139368 0.278736%
BRANCH_CONDITIONAL: 7920858 15.8417%
BRANCH_DIRECT_CALL: 776072 1.55214%
BRANCH_INDIRECT_CALL: 194644 0.389288%
BRANCH_RETURN: 993311 1.98662%
BRANCH_OTHER: 0 0%

