Initialize SIGNATURE TABLE
ST_SET: 1
ST_WAY: 256
ST_TAG_BIT: 16
ST_TAG_MASK: ffff

Initialize PATTERN TABLE
PT_SET: 512
PT_WAY: 4
SIG_DELTA_BIT: 7
C_SIG_BIT: 4
C_DELTA_BIT: 4

Initialize PREFETCH FILTER
FILTER_SET: 1024

*** ChampSim Multicore Out-of-Order Simulator ***

Warmup Instructions: 50000000
Simulation Instructions: 50000000
Number of CPUs: 1
LLC sets: 2048
LLC ways: 16
Off-chip DRAM Size: 4096 MB Channels: 1 Width: 64-bit Data Rate: 3200 MT/s

CPU 0 runs /home/mbaradaran/ChampSim/dpc3_traces/server_029.champsimtrace.xz
CPU 0 L1D next line prefetcher
Heartbeat CPU 0 instructions: 10000001 cycles: 3485939 heartbeat IPC: 2.86867 cumulative IPC: 2.86867 (Simulation time: 0 hr 1 min 39 sec) 
Heartbeat CPU 0 instructions: 20000002 cycles: 6971673 heartbeat IPC: 2.86884 cumulative IPC: 2.86875 (Simulation time: 0 hr 3 min 17 sec) 
Heartbeat CPU 0 instructions: 30000003 cycles: 10458277 heartbeat IPC: 2.86812 cumulative IPC: 2.86854 (Simulation time: 0 hr 5 min 2 sec) 
Heartbeat CPU 0 instructions: 40000000 cycles: 13952184 heartbeat IPC: 2.86212 cumulative IPC: 2.86693 (Simulation time: 0 hr 6 min 42 sec) 
Heartbeat CPU 0 instructions: 50000000 cycles: 17445239 heartbeat IPC: 2.86282 cumulative IPC: 2.86611 (Simulation time: 0 hr 8 min 23 sec) 

Warmup complete CPU 0 instructions: 50000004 cycles: 17445240 (Simulation time: 0 hr 8 min 23 sec) 

Heartbeat CPU 0 instructions: 60000000 cycles: 25005589 heartbeat IPC: 1.32269 cumulative IPC: 1.32269 (Simulation time: 0 hr 10 min 10 sec) 
Heartbeat CPU 0 instructions: 70000003 cycles: 32722429 heartbeat IPC: 1.29587 cumulative IPC: 1.30914 (Simulation time: 0 hr 11 min 58 sec) 
Heartbeat CPU 0 instructions: 80000002 cycles: 40285031 heartbeat IPC: 1.3223 cumulative IPC: 1.3135 (Simulation time: 0 hr 13 min 32 sec) 
*** Reached end of trace for Core: 0 Repeating trace: /home/mbaradaran/ChampSim/dpc3_traces/server_029.champsimtrace.xz
Heartbeat CPU 0 instructions: 90000000 cycles: 47751116 heartbeat IPC: 1.33939 cumulative IPC: 1.31988 (Simulation time: 0 hr 15 min 7 sec) 
Heartbeat CPU 0 instructions: 100000003 cycles: 55223967 heartbeat IPC: 1.33818 cumulative IPC: 1.3235 (Simulation time: 0 hr 16 min 48 sec) 
Finished CPU 0 instructions: 50000003 cycles: 37778728 cumulative IPC: 1.3235 (Simulation time: 0 hr 16 min 48 sec) 

ChampSim completed all CPUs

Region of Interest Statistics

CPU 0 cumulative IPC: 1.3235 instructions: 50000003 cycles: 37778728

SHEET
IPC : 1.3235

L1D TOTAL     ACCESS:   19100275  HIT:   17003851  MISS:    2096424
L1D LOAD      ACCESS:    6752449  HIT:    5687314  MISS:    1065135
L1D RFO       ACCESS:    6110592  HIT:    5824750  MISS:     285842
L1D PREFETCH  ACCESS:    6237234  HIT:    5491787  MISS:     745447
L1D WRITEBACK ACCESS:          0  HIT:          0  MISS:          0
L1D PREFETCH  REQUESTED:    6813073  ISSUED:    6707416  USEFUL:     175327  USELESS:     570111
L1D AVERAGE MISS LATENCY: 21.0192 cycles
L1D

SHEET
L1D-total_access : 19100275
L1D-total_hit : 17003851
L1D-total_miss : 2096424
L1D-load_access : 6752449
L1D-load_hit : 5687314
L1D-load_miss : 1065135
L1D-rfo_access : 6110592
L1D-rfo_hit : 5824750
L1D-rfo_miss : 285842
L1D-prefetch_access : 6237234
L1D-prefetch_hit : 5491787
L1D-prefetch_miss : 745447
L1D-writeback_access : 0
L1D-writeback_hit : 0
L1D-writeback_miss : 0
L1D-prefetch_requested : 6813073
L1D-prefetch_issued : 6707416
L1D-prefetch_useful : 175327
L1D-prefetch_useless : 570111
L1D-Avg_miss_latency : 21.0192
L1D-Morteza_fill_l2_prefetches : 0

L1I TOTAL     ACCESS:   16124698  HIT:   12666853  MISS:    3457845
L1I LOAD      ACCESS:    9760863  HIT:    9601979  MISS:     158884
L1I RFO       ACCESS:          0  HIT:          0  MISS:          0
L1I PREFETCH  ACCESS:    6363835  HIT:    3064874  MISS:    3298961
L1I WRITEBACK ACCESS:          0  HIT:          0  MISS:          0
L1I PREFETCH  REQUESTED:    6507729  ISSUED:    6503463  USEFUL:    2894149  USELESS:     404825
L1I AVERAGE MISS LATENCY: 16.8318 cycles
L1I

SHEET
L1I-total_access : 16124698
L1I-total_hit : 12666853
L1I-total_miss : 3457845
L1I-load_access : 9760863
L1I-load_hit : 9601979
L1I-load_miss : 158884
L1I-rfo_access : 0
L1I-rfo_hit : 0
L1I-rfo_miss : 0
L1I-prefetch_access : 6363835
L1I-prefetch_hit : 3064874
L1I-prefetch_miss : 3298961
L1I-writeback_access : 0
L1I-writeback_hit : 0
L1I-writeback_miss : 0
L1I-prefetch_requested : 6507729
L1I-prefetch_issued : 6503463
L1I-prefetch_useful : 2894149
L1I-prefetch_useless : 404825
L1I-Avg_miss_latency : 16.8318
L1I-Morteza_fill_l2_prefetches : 0

L2C TOTAL     ACCESS:    7704048  HIT:    7074634  MISS:     629414
L2C LOAD      ACCESS:     966917  HIT:     823079  MISS:     143838
L2C RFO       ACCESS:     283540  HIT:     236084  MISS:      47456
L2C PREFETCH  ACCESS:    5843069  HIT:    5405991  MISS:     437078
L2C WRITEBACK ACCESS:     610522  HIT:     609480  MISS:       1042
L2C PREFETCH  REQUESTED:    7012554  ISSUED:    7002556  USEFUL:      14885  USELESS:     420993
L2C AVERAGE MISS LATENCY: 43.698 cycles
L2C

SHEET
L2C-total_access : 7704048
L2C-total_hit : 7074634
L2C-total_miss : 629414
L2C-load_access : 966917
L2C-load_hit : 823079
L2C-load_miss : 143838
L2C-rfo_access : 283540
L2C-rfo_hit : 236084
L2C-rfo_miss : 47456
L2C-prefetch_access : 5843069
L2C-prefetch_hit : 5405991
L2C-prefetch_miss : 437078
L2C-writeback_access : 610522
L2C-writeback_hit : 609480
L2C-writeback_miss : 1042
L2C-prefetch_requested : 7012554
L2C-prefetch_issued : 7002556
L2C-prefetch_useful : 14885
L2C-prefetch_useless : 420993
L2C-Avg_miss_latency : 43.698
L2C-Morteza_fill_l2_prefetches : 1599329

LLC TOTAL     ACCESS:    2393357  HIT:    2314892  MISS:      78465
LLC LOAD      ACCESS:     143722  HIT:     126256  MISS:      17466
LLC RFO       ACCESS:      47455  HIT:      43808  MISS:       3647
LLC PREFETCH  ACCESS:    2104307  HIT:    2047613  MISS:      56694
LLC WRITEBACK ACCESS:      97873  HIT:      97215  MISS:        658
LLC PREFETCH  REQUESTED:          0  ISSUED:          0  USEFUL:       2690  USELESS:      54513
LLC AVERAGE MISS LATENCY: 158.783 cycles
LLC

SHEET
LLC-total_access : 2393357
LLC-total_hit : 2314892
LLC-total_miss : 78465
LLC-load_access : 143722
LLC-load_hit : 126256
LLC-load_miss : 17466
LLC-rfo_access : 47455
LLC-rfo_hit : 43808
LLC-rfo_miss : 3647
LLC-prefetch_access : 2104307
LLC-prefetch_hit : 2047613
LLC-prefetch_miss : 56694
LLC-writeback_access : 97873
LLC-writeback_hit : 97215
LLC-writeback_miss : 658
LLC-prefetch_requested : 0
LLC-prefetch_issued : 0
LLC-prefetch_useful : 2690
LLC-prefetch_useless : 54513
LLC-Avg_miss_latency : 158.783
LLC-Morteza_fill_l2_prefetches : 1649642

Major fault: 0 Minor fault: 5918



Printing Logs
morteza: start

SHEET
history_access_cntr : 7219710
index_access_cntr : 3049944
sab_access_cntr : 17945792
compactor_access_cntr : 17251313

morteza: end
CPU 0 L1D next line prefetcher final stats

DRAM Statistics
 CHANNEL 0
 RQ ROW_BUFFER_HIT:      21113  ROW_BUFFER_MISS:      56681
 DBUS_CONGESTED:      31392
 WQ ROW_BUFFER_HIT:        596  ROW_BUFFER_MISS:       4079  FULL:          0

 AVG_CONGESTED_CYCLE: 5

CPU 0 Branch Prediction Accuracy: 99.7245% MPKI: 0.51862 Average ROB Occupancy at Mispredict: 145.593

Branch types
NOT_BRANCH: 40586616 81.1732%
BRANCH_DIRECT_JUMP: 525211 1.05042%
BRANCH_INDIRECT: 166359 0.332718%
BRANCH_CONDITIONAL: 6373091 12.7462%
BRANCH_DIRECT_CALL: 989263 1.97853%
BRANCH_INDIRECT_CALL: 184984 0.369968%
BRANCH_RETURN: 1174250 2.3485%
BRANCH_OTHER: 0 0%

