Initialize SIGNATURE TABLE
ST_SET: 1
ST_WAY: 256
ST_TAG_BIT: 16
ST_TAG_MASK: ffff

Initialize PATTERN TABLE
PT_SET: 512
PT_WAY: 4
SIG_DELTA_BIT: 7
C_SIG_BIT: 4
C_DELTA_BIT: 4

Initialize PREFETCH FILTER
FILTER_SET: 1024

*** ChampSim Multicore Out-of-Order Simulator ***

Warmup Instructions: 50000000
Simulation Instructions: 50000000
Number of CPUs: 1
LLC sets: 2048
LLC ways: 16
Off-chip DRAM Size: 4096 MB Channels: 1 Width: 64-bit Data Rate: 3200 MT/s

CPU 0 runs /home/mbaradaran/ChampSim/dpc3_traces/server_022.champsimtrace.xz
CPU 0 L1D next line prefetcher
Heartbeat CPU 0 instructions: 10000002 cycles: 3622460 heartbeat IPC: 2.76056 cumulative IPC: 2.76056 (Simulation time: 0 hr 1 min 42 sec) 
Heartbeat CPU 0 instructions: 20000001 cycles: 7251124 heartbeat IPC: 2.75583 cumulative IPC: 2.75819 (Simulation time: 0 hr 3 min 28 sec) 
Heartbeat CPU 0 instructions: 30000003 cycles: 10873625 heartbeat IPC: 2.76052 cumulative IPC: 2.75897 (Simulation time: 0 hr 5 min 2 sec) 
Heartbeat CPU 0 instructions: 40000003 cycles: 14503503 heartbeat IPC: 2.75491 cumulative IPC: 2.75795 (Simulation time: 0 hr 6 min 49 sec) 
Heartbeat CPU 0 instructions: 50000002 cycles: 18123633 heartbeat IPC: 2.76233 cumulative IPC: 2.75883 (Simulation time: 0 hr 8 min 30 sec) 

Warmup complete CPU 0 instructions: 50000002 cycles: 18123633 (Simulation time: 0 hr 8 min 30 sec) 

Heartbeat CPU 0 instructions: 60000000 cycles: 34706086 heartbeat IPC: 0.603047 cumulative IPC: 0.603047 (Simulation time: 0 hr 10 min 53 sec) 
Heartbeat CPU 0 instructions: 70000001 cycles: 51424431 heartbeat IPC: 0.598145 cumulative IPC: 0.600586 (Simulation time: 0 hr 13 min 13 sec) 
Heartbeat CPU 0 instructions: 80000001 cycles: 67982679 heartbeat IPC: 0.603929 cumulative IPC: 0.601696 (Simulation time: 0 hr 15 min 48 sec) 
Heartbeat CPU 0 instructions: 90000003 cycles: 84761251 heartbeat IPC: 0.595998 cumulative IPC: 0.600262 (Simulation time: 0 hr 18 min 25 sec) 
Heartbeat CPU 0 instructions: 100000003 cycles: 101318038 heartbeat IPC: 0.603982 cumulative IPC: 0.601002 (Simulation time: 0 hr 20 min 41 sec) 
Finished CPU 0 instructions: 50000001 cycles: 83194405 cumulative IPC: 0.601002 (Simulation time: 0 hr 20 min 41 sec) 

ChampSim completed all CPUs

Region of Interest Statistics

CPU 0 cumulative IPC: 0.601002 instructions: 50000001 cycles: 83194405

SHEET
IPC : 0.601002

L1D TOTAL     ACCESS:   18696135  HIT:   16485410  MISS:    2210725
L1D LOAD      ACCESS:    7056821  HIT:    6354671  MISS:     702150
L1D RFO       ACCESS:    5882524  HIT:    4902904  MISS:     979620
L1D PREFETCH  ACCESS:    5756790  HIT:    5227835  MISS:     528955
L1D WRITEBACK ACCESS:          0  HIT:          0  MISS:          0
L1D PREFETCH  REQUESTED:    7099299  ISSUED:    6891508  USEFUL:     207767  USELESS:     321193
L1D AVERAGE MISS LATENCY: 179.575 cycles
L1D

SHEET
L1D-total_access : 18696135
L1D-total_hit : 16485410
L1D-total_miss : 2210725
L1D-load_access : 7056821
L1D-load_hit : 6354671
L1D-load_miss : 702150
L1D-rfo_access : 5882524
L1D-rfo_hit : 4902904
L1D-rfo_miss : 979620
L1D-prefetch_access : 5756790
L1D-prefetch_hit : 5227835
L1D-prefetch_miss : 528955
L1D-writeback_access : 0
L1D-writeback_hit : 0
L1D-writeback_miss : 0
L1D-prefetch_requested : 7099299
L1D-prefetch_issued : 6891508
L1D-prefetch_useful : 207767
L1D-prefetch_useless : 321193
L1D-Avg_miss_latency : 179.575
L1D-Morteza_fill_l2_prefetches : 0

L1I TOTAL     ACCESS:   15759109  HIT:   13169174  MISS:    2589935
L1I LOAD      ACCESS:   10100598  HIT:   10007233  MISS:      93365
L1I RFO       ACCESS:          0  HIT:          0  MISS:          0
L1I PREFETCH  ACCESS:    5658511  HIT:    3161941  MISS:    2496570
L1I WRITEBACK ACCESS:          0  HIT:          0  MISS:          0
L1I PREFETCH  REQUESTED:    5754522  ISSUED:    5753028  USEFUL:    2359121  USELESS:     137459
L1I AVERAGE MISS LATENCY: 16.7754 cycles
L1I

SHEET
L1I-total_access : 15759109
L1I-total_hit : 13169174
L1I-total_miss : 2589935
L1I-load_access : 10100598
L1I-load_hit : 10007233
L1I-load_miss : 93365
L1I-rfo_access : 0
L1I-rfo_hit : 0
L1I-rfo_miss : 0
L1I-prefetch_access : 5658511
L1I-prefetch_hit : 3161941
L1I-prefetch_miss : 2496570
L1I-writeback_access : 0
L1I-writeback_hit : 0
L1I-writeback_miss : 0
L1I-prefetch_requested : 5754522
L1I-prefetch_issued : 5753028
L1I-prefetch_useful : 2359121
L1I-prefetch_useless : 137459
L1I-Avg_miss_latency : 16.7754
L1I-Morteza_fill_l2_prefetches : 0

L2C TOTAL     ACCESS:    7142572  HIT:    5288256  MISS:    1854316
L2C LOAD      ACCESS:     516988  HIT:     269445  MISS:     247543
L2C RFO       ACCESS:     978992  HIT:      20776  MISS:     958216
L2C PREFETCH  ACCESS:    4461447  HIT:    3815023  MISS:     646424
L2C WRITEBACK ACCESS:    1185145  HIT:    1183012  MISS:       2133
L2C PREFETCH  REQUESTED:    4389694  ISSUED:    4385987  USEFUL:      21276  USELESS:     625176
L2C AVERAGE MISS LATENCY: 218.019 cycles
L2C

SHEET
L2C-total_access : 7142572
L2C-total_hit : 5288256
L2C-total_miss : 1854316
L2C-load_access : 516988
L2C-load_hit : 269445
L2C-load_miss : 247543
L2C-rfo_access : 978992
L2C-rfo_hit : 20776
L2C-rfo_miss : 958216
L2C-prefetch_access : 4461447
L2C-prefetch_hit : 3815023
L2C-prefetch_miss : 646424
L2C-writeback_access : 1185145
L2C-writeback_hit : 1183012
L2C-writeback_miss : 2133
L2C-prefetch_requested : 4389694
L2C-prefetch_issued : 4385987
L2C-prefetch_useful : 21276
L2C-prefetch_useless : 625176
L2C-Avg_miss_latency : 218.019
L2C-Morteza_fill_l2_prefetches : 1180223

LLC TOTAL     ACCESS:    4071736  HIT:    2662829  MISS:    1408907
LLC LOAD      ACCESS:     247430  HIT:     171859  MISS:      75571
LLC RFO       ACCESS:     958207  HIT:     141240  MISS:     816967
LLC PREFETCH  ACCESS:    1749948  HIT:    1235675  MISS:     514273
LLC WRITEBACK ACCESS:    1116151  HIT:    1114055  MISS:       2096
LLC PREFETCH  REQUESTED:          0  ISSUED:          0  USEFUL:      32109  USELESS:     482403
LLC AVERAGE MISS LATENCY: 292.224 cycles
LLC

SHEET
LLC-total_access : 4071736
LLC-total_hit : 2662829
LLC-total_miss : 1408907
LLC-load_access : 247430
LLC-load_hit : 171859
LLC-load_miss : 75571
LLC-rfo_access : 958207
LLC-rfo_hit : 141240
LLC-rfo_miss : 816967
LLC-prefetch_access : 1749948
LLC-prefetch_hit : 1235675
LLC-prefetch_miss : 514273
LLC-writeback_access : 1116151
LLC-writeback_hit : 1114055
LLC-writeback_miss : 2096
LLC-prefetch_requested : 0
LLC-prefetch_issued : 0
LLC-prefetch_useful : 32109
LLC-prefetch_useless : 482403
LLC-Avg_miss_latency : 292.224
LLC-Morteza_fill_l2_prefetches : 889874

Major fault: 0 Minor fault: 23505



Printing Logs
morteza: start

SHEET
history_access_cntr : 6252174
index_access_cntr : 2662614
sab_access_cntr : 16789967
compactor_access_cntr : 16094112

morteza: end
CPU 0 L1D next line prefetcher final stats

DRAM Statistics
 CHANNEL 0
 RQ ROW_BUFFER_HIT:     408140  ROW_BUFFER_MISS:     998353
 DBUS_CONGESTED:    1455178
 WQ ROW_BUFFER_HIT:     255879  ROW_BUFFER_MISS:     648307  FULL:          0

 AVG_CONGESTED_CYCLE: 6

CPU 0 Branch Prediction Accuracy: 99.8317% MPKI: 0.27564 Average ROB Occupancy at Mispredict: 219.515

Branch types
NOT_BRANCH: 41811164 83.6223%
BRANCH_DIRECT_JUMP: 445742 0.891484%
BRANCH_INDIRECT: 48876 0.097752%
BRANCH_CONDITIONAL: 5859409 11.7188%
BRANCH_DIRECT_CALL: 758268 1.51654%
BRANCH_INDIRECT_CALL: 159103 0.318206%
BRANCH_RETURN: 917372 1.83474%
BRANCH_OTHER: 0 0%

