Initialize SIGNATURE TABLE
ST_SET: 1
ST_WAY: 256
ST_TAG_BIT: 16
ST_TAG_MASK: ffff

Initialize PATTERN TABLE
PT_SET: 512
PT_WAY: 4
SIG_DELTA_BIT: 7
C_SIG_BIT: 4
C_DELTA_BIT: 4

Initialize PREFETCH FILTER
FILTER_SET: 1024

*** ChampSim Multicore Out-of-Order Simulator ***

Warmup Instructions: 50000000
Simulation Instructions: 50000000
Number of CPUs: 1
LLC sets: 2048
LLC ways: 16
Off-chip DRAM Size: 4096 MB Channels: 1 Width: 64-bit Data Rate: 3200 MT/s

CPU 0 runs /home/mbaradaran/ChampSim/dpc3_traces/spec_x264_001.champsimtrace.xz
CPU 0 L1D next line prefetcher
Heartbeat CPU 0 instructions: 10000002 cycles: 3059949 heartbeat IPC: 3.26803 cumulative IPC: 3.26803 (Simulation time: 0 hr 1 min 1 sec) 
Heartbeat CPU 0 instructions: 20000002 cycles: 6110298 heartbeat IPC: 3.27831 cumulative IPC: 3.27316 (Simulation time: 0 hr 1 min 59 sec) 
Heartbeat CPU 0 instructions: 30000002 cycles: 9146087 heartbeat IPC: 3.29404 cumulative IPC: 3.28009 (Simulation time: 0 hr 2 min 58 sec) 
Heartbeat CPU 0 instructions: 40000000 cycles: 12190716 heartbeat IPC: 3.28447 cumulative IPC: 3.28119 (Simulation time: 0 hr 3 min 57 sec) 
Heartbeat CPU 0 instructions: 50000000 cycles: 15233892 heartbeat IPC: 3.28604 cumulative IPC: 3.28216 (Simulation time: 0 hr 5 min 3 sec) 

Warmup complete CPU 0 instructions: 50000004 cycles: 15233893 (Simulation time: 0 hr 5 min 3 sec) 

Heartbeat CPU 0 instructions: 60000002 cycles: 21167954 heartbeat IPC: 1.68519 cumulative IPC: 1.68519 (Simulation time: 0 hr 5 min 48 sec) 
Heartbeat CPU 0 instructions: 70000000 cycles: 27088377 heartbeat IPC: 1.68907 cumulative IPC: 1.68712 (Simulation time: 0 hr 6 min 28 sec) 
Heartbeat CPU 0 instructions: 80000003 cycles: 33155419 heartbeat IPC: 1.64825 cumulative IPC: 1.67396 (Simulation time: 0 hr 7 min 7 sec) 
Heartbeat CPU 0 instructions: 90000002 cycles: 39198033 heartbeat IPC: 1.65491 cumulative IPC: 1.66916 (Simulation time: 0 hr 7 min 57 sec) 
Heartbeat CPU 0 instructions: 100000002 cycles: 45108384 heartbeat IPC: 1.69195 cumulative IPC: 1.67367 (Simulation time: 0 hr 8 min 43 sec) 
Finished CPU 0 instructions: 50000002 cycles: 29874492 cumulative IPC: 1.67367 (Simulation time: 0 hr 8 min 43 sec) 

ChampSim completed all CPUs

Region of Interest Statistics

CPU 0 cumulative IPC: 1.67367 instructions: 50000002 cycles: 29874492

SHEET
IPC : 1.67367

L1D TOTAL     ACCESS:   12967927  HIT:   12806892  MISS:     161035
L1D LOAD      ACCESS:    5096752  HIT:    5041594  MISS:      55158
L1D RFO       ACCESS:    2880886  HIT:    2846671  MISS:      34215
L1D PREFETCH  ACCESS:    4990289  HIT:    4918627  MISS:      71662
L1D WRITEBACK ACCESS:          0  HIT:          0  MISS:          0
L1D PREFETCH  REQUESTED:    5113305  ISSUED:    5045363  USEFUL:      25799  USELESS:      45672
L1D AVERAGE MISS LATENCY: 39.9858 cycles
L1D

SHEET
L1D-total_access : 12967927
L1D-total_hit : 12806892
L1D-total_miss : 161035
L1D-load_access : 5096752
L1D-load_hit : 5041594
L1D-load_miss : 55158
L1D-rfo_access : 2880886
L1D-rfo_hit : 2846671
L1D-rfo_miss : 34215
L1D-prefetch_access : 4990289
L1D-prefetch_hit : 4918627
L1D-prefetch_miss : 71662
L1D-writeback_access : 0
L1D-writeback_hit : 0
L1D-writeback_miss : 0
L1D-prefetch_requested : 5113305
L1D-prefetch_issued : 5045363
L1D-prefetch_useful : 25799
L1D-prefetch_useless : 45672
L1D-Avg_miss_latency : 39.9858
L1D-Morteza_fill_l2_prefetches : 0

L1I TOTAL     ACCESS:    9028285  HIT:    8731094  MISS:     297191
L1I LOAD      ACCESS:    8036408  HIT:    8024117  MISS:      12291
L1I RFO       ACCESS:          0  HIT:          0  MISS:          0
L1I PREFETCH  ACCESS:     991877  HIT:     706977  MISS:     284900
L1I WRITEBACK ACCESS:          0  HIT:          0  MISS:          0
L1I PREFETCH  REQUESTED:    1002907  ISSUED:    1002859  USEFUL:     247784  USELESS:      37148
L1I AVERAGE MISS LATENCY: 14.4699 cycles
L1I

SHEET
L1I-total_access : 9028285
L1I-total_hit : 8731094
L1I-total_miss : 297191
L1I-load_access : 8036408
L1I-load_hit : 8024117
L1I-load_miss : 12291
L1I-rfo_access : 0
L1I-rfo_hit : 0
L1I-rfo_miss : 0
L1I-prefetch_access : 991877
L1I-prefetch_hit : 706977
L1I-prefetch_miss : 284900
L1I-writeback_access : 0
L1I-writeback_hit : 0
L1I-writeback_miss : 0
L1I-prefetch_requested : 1002907
L1I-prefetch_issued : 1002859
L1I-prefetch_useful : 247784
L1I-prefetch_useless : 37148
L1I-Avg_miss_latency : 14.4699
L1I-Morteza_fill_l2_prefetches : 0

L2C TOTAL     ACCESS:     668017  HIT:     629617  MISS:      38400
L2C LOAD      ACCESS:      64491  HIT:      58607  MISS:       5884
L2C RFO       ACCESS:      33966  HIT:      21889  MISS:      12077
L2C PREFETCH  ACCESS:     526514  HIT:     506140  MISS:      20374
L2C WRITEBACK ACCESS:      43046  HIT:      42981  MISS:         65
L2C PREFETCH  REQUESTED:     558185  ISSUED:     557135  USEFUL:       8867  USELESS:      11738
L2C AVERAGE MISS LATENCY: 105.687 cycles
L2C

SHEET
L2C-total_access : 668017
L2C-total_hit : 629617
L2C-total_miss : 38400
L2C-load_access : 64491
L2C-load_hit : 58607
L2C-load_miss : 5884
L2C-rfo_access : 33966
L2C-rfo_hit : 21889
L2C-rfo_miss : 12077
L2C-prefetch_access : 526514
L2C-prefetch_hit : 506140
L2C-prefetch_miss : 20374
L2C-writeback_access : 43046
L2C-writeback_hit : 42981
L2C-writeback_miss : 65
L2C-prefetch_requested : 558185
L2C-prefetch_issued : 557135
L2C-prefetch_useful : 8867
L2C-prefetch_useless : 11738
L2C-Avg_miss_latency : 105.687
L2C-Morteza_fill_l2_prefetches : 169701

LLC TOTAL     ACCESS:     138286  HIT:     109053  MISS:      29233
LLC LOAD      ACCESS:       5883  HIT:       3758  MISS:       2125
LLC RFO       ACCESS:      12077  HIT:        481  MISS:      11596
LLC PREFETCH  ACCESS:     106747  HIT:      91295  MISS:      15452
LLC WRITEBACK ACCESS:      13579  HIT:      13519  MISS:         60
LLC PREFETCH  REQUESTED:          0  ISSUED:          0  USEFUL:       1685  USELESS:      13904
LLC AVERAGE MISS LATENCY: 166.368 cycles
LLC

SHEET
LLC-total_access : 138286
LLC-total_hit : 109053
LLC-total_miss : 29233
LLC-load_access : 5883
LLC-load_hit : 3758
LLC-load_miss : 2125
LLC-rfo_access : 12077
LLC-rfo_hit : 481
LLC-rfo_miss : 11596
LLC-prefetch_access : 106747
LLC-prefetch_hit : 91295
LLC-prefetch_miss : 15452
LLC-writeback_access : 13579
LLC-writeback_hit : 13519
LLC-writeback_miss : 60
LLC-prefetch_requested : 0
LLC-prefetch_issued : 0
LLC-prefetch_useful : 1685
LLC-prefetch_useless : 13904
LLC-Avg_miss_latency : 166.368
LLC-Morteza_fill_l2_prefetches : 76278

Major fault: 0 Minor fault: 1284



Printing Logs
morteza: start

SHEET
history_access_cntr : 706792
index_access_cntr : 270922
sab_access_cntr : 8750836
compactor_access_cntr : 8757882

morteza: end
CPU 0 L1D next line prefetcher final stats

DRAM Statistics
 CHANNEL 0
 RQ ROW_BUFFER_HIT:       9094  ROW_BUFFER_MISS:      20079
 DBUS_CONGESTED:      12535
 WQ ROW_BUFFER_HIT:       3004  ROW_BUFFER_MISS:       9875  FULL:          0

 AVG_CONGESTED_CYCLE: 6

CPU 0 Branch Prediction Accuracy: 97.1633% MPKI: 1.73704 Average ROB Occupancy at Mispredict: 42.063

Branch types
NOT_BRANCH: 46937921 93.8758%
BRANCH_DIRECT_JUMP: 170816 0.341632%
BRANCH_INDIRECT: 0 0%
BRANCH_CONDITIONAL: 2532774 5.06555%
BRANCH_DIRECT_CALL: 114227 0.228454%
BRANCH_INDIRECT_CALL: 64863 0.129726%
BRANCH_RETURN: 179089 0.358178%
BRANCH_OTHER: 0 0%

