Initialize SIGNATURE TABLE
ST_SET: 1
ST_WAY: 256
ST_TAG_BIT: 16
ST_TAG_MASK: ffff

Initialize PATTERN TABLE
PT_SET: 512
PT_WAY: 4
SIG_DELTA_BIT: 7
C_SIG_BIT: 4
C_DELTA_BIT: 4

Initialize PREFETCH FILTER
FILTER_SET: 1024

*** ChampSim Multicore Out-of-Order Simulator ***

Warmup Instructions: 50000000
Simulation Instructions: 50000000
Number of CPUs: 1
LLC sets: 2048
LLC ways: 16
Off-chip DRAM Size: 4096 MB Channels: 1 Width: 64-bit Data Rate: 3200 MT/s

CPU 0 runs /home/mbaradaran/ChampSim/dpc3_traces/spec_gcc_001.champsimtrace.xz
CPU 0 L1D next line prefetcher
Heartbeat CPU 0 instructions: 10000003 cycles: 3220058 heartbeat IPC: 3.10554 cumulative IPC: 3.10554 (Simulation time: 0 hr 1 min 39 sec) 
Heartbeat CPU 0 instructions: 20000002 cycles: 6465258 heartbeat IPC: 3.08147 cumulative IPC: 3.09346 (Simulation time: 0 hr 3 min 8 sec) 
Heartbeat CPU 0 instructions: 30000000 cycles: 9667542 heartbeat IPC: 3.12277 cumulative IPC: 3.10317 (Simulation time: 0 hr 4 min 30 sec) 
Heartbeat CPU 0 instructions: 40000001 cycles: 12904874 heartbeat IPC: 3.08896 cumulative IPC: 3.0996 (Simulation time: 0 hr 5 min 56 sec) 
Heartbeat CPU 0 instructions: 50000001 cycles: 16146489 heartbeat IPC: 3.08488 cumulative IPC: 3.09665 (Simulation time: 0 hr 7 min 17 sec) 

Warmup complete CPU 0 instructions: 50000001 cycles: 16146489 (Simulation time: 0 hr 7 min 17 sec) 

Heartbeat CPU 0 instructions: 60000000 cycles: 24081652 heartbeat IPC: 1.26021 cumulative IPC: 1.26021 (Simulation time: 0 hr 8 min 42 sec) 
Heartbeat CPU 0 instructions: 70000002 cycles: 32091585 heartbeat IPC: 1.24845 cumulative IPC: 1.2543 (Simulation time: 0 hr 10 min 11 sec) 
Heartbeat CPU 0 instructions: 80000000 cycles: 39779586 heartbeat IPC: 1.30073 cumulative IPC: 1.26941 (Simulation time: 0 hr 11 min 22 sec) 
Heartbeat CPU 0 instructions: 90000001 cycles: 47789655 heartbeat IPC: 1.24843 cumulative IPC: 1.2641 (Simulation time: 0 hr 12 min 32 sec) 
Heartbeat CPU 0 instructions: 100000000 cycles: 56129822 heartbeat IPC: 1.19902 cumulative IPC: 1.25052 (Simulation time: 0 hr 13 min 39 sec) 
Finished CPU 0 instructions: 50000000 cycles: 39983337 cumulative IPC: 1.25052 (Simulation time: 0 hr 13 min 39 sec) 

ChampSim completed all CPUs

Region of Interest Statistics

CPU 0 cumulative IPC: 1.25052 instructions: 50000000 cycles: 39983337

SHEET
IPC : 1.25052

L1D TOTAL     ACCESS:   19371496  HIT:   18266324  MISS:    1105172
L1D LOAD      ACCESS:    7256401  HIT:    6777194  MISS:     479207
L1D RFO       ACCESS:    5118786  HIT:    5039112  MISS:      79674
L1D PREFETCH  ACCESS:    6996309  HIT:    6450018  MISS:     546291
L1D WRITEBACK ACCESS:          0  HIT:          0  MISS:          0
L1D PREFETCH  REQUESTED:    7300552  ISSUED:    7202055  USEFUL:     276047  USELESS:     270256
L1D AVERAGE MISS LATENCY: 25.6858 cycles
L1D

SHEET
L1D-total_access : 19371496
L1D-total_hit : 18266324
L1D-total_miss : 1105172
L1D-load_access : 7256401
L1D-load_hit : 6777194
L1D-load_miss : 479207
L1D-rfo_access : 5118786
L1D-rfo_hit : 5039112
L1D-rfo_miss : 79674
L1D-prefetch_access : 6996309
L1D-prefetch_hit : 6450018
L1D-prefetch_miss : 546291
L1D-writeback_access : 0
L1D-writeback_hit : 0
L1D-writeback_miss : 0
L1D-prefetch_requested : 7300552
L1D-prefetch_issued : 7202055
L1D-prefetch_useful : 276047
L1D-prefetch_useless : 270256
L1D-Avg_miss_latency : 25.6858
L1D-Morteza_fill_l2_prefetches : 0

L1I TOTAL     ACCESS:   20110894  HIT:   19057376  MISS:    1053518
L1I LOAD      ACCESS:    9313389  HIT:    9165281  MISS:     148108
L1I RFO       ACCESS:          0  HIT:          0  MISS:          0
L1I PREFETCH  ACCESS:   10797505  HIT:    9892095  MISS:     905410
L1I WRITEBACK ACCESS:          0  HIT:          0  MISS:          0
L1I PREFETCH  REQUESTED:   10877603  ISSUED:   10873994  USEFUL:     487755  USELESS:     417703
L1I AVERAGE MISS LATENCY: 16.9093 cycles
L1I

SHEET
L1I-total_access : 20110894
L1I-total_hit : 19057376
L1I-total_miss : 1053518
L1I-load_access : 9313389
L1I-load_hit : 9165281
L1I-load_miss : 148108
L1I-rfo_access : 0
L1I-rfo_hit : 0
L1I-rfo_miss : 0
L1I-prefetch_access : 10797505
L1I-prefetch_hit : 9892095
L1I-prefetch_miss : 905410
L1I-writeback_access : 0
L1I-writeback_hit : 0
L1I-writeback_miss : 0
L1I-prefetch_requested : 10877603
L1I-prefetch_issued : 10873994
L1I-prefetch_useful : 487755
L1I-prefetch_useless : 417703
L1I-Avg_miss_latency : 16.9093
L1I-Morteza_fill_l2_prefetches : 0

L2C TOTAL     ACCESS:    3477015  HIT:    3212844  MISS:     264171
L2C LOAD      ACCESS:     583046  HIT:     484399  MISS:      98647
L2C RFO       ACCESS:      74994  HIT:      36272  MISS:      38722
L2C PREFETCH  ACCESS:    2565210  HIT:    2439012  MISS:     126198
L2C WRITEBACK ACCESS:     253765  HIT:     253161  MISS:        604
L2C PREFETCH  REQUESTED:    2328267  ISSUED:    2328039  USEFUL:      33177  USELESS:      92688
L2C AVERAGE MISS LATENCY: 59.4199 cycles
L2C

SHEET
L2C-total_access : 3477015
L2C-total_hit : 3212844
L2C-total_miss : 264171
L2C-load_access : 583046
L2C-load_hit : 484399
L2C-load_miss : 98647
L2C-rfo_access : 74994
L2C-rfo_hit : 36272
L2C-rfo_miss : 38722
L2C-prefetch_access : 2565210
L2C-prefetch_hit : 2439012
L2C-prefetch_miss : 126198
L2C-writeback_access : 253765
L2C-writeback_hit : 253161
L2C-writeback_miss : 604
L2C-prefetch_requested : 2328267
L2C-prefetch_issued : 2328039
L2C-prefetch_useful : 33177
L2C-prefetch_useless : 92688
L2C-Avg_miss_latency : 59.4199
L2C-Morteza_fill_l2_prefetches : 1073475

LLC TOTAL     ACCESS:     756849  HIT:     685896  MISS:      70953
LLC LOAD      ACCESS:      98440  HIT:      85939  MISS:      12501
LLC RFO       ACCESS:      38721  HIT:      18100  MISS:      20621
LLC PREFETCH  ACCESS:     526515  HIT:     489404  MISS:      37111
LLC WRITEBACK ACCESS:      93173  HIT:      92453  MISS:        720
LLC PREFETCH  REQUESTED:          0  ISSUED:          0  USEFUL:      14191  USELESS:      22496
LLC AVERAGE MISS LATENCY: 179.537 cycles
LLC

SHEET
LLC-total_access : 756849
LLC-total_hit : 685896
LLC-total_miss : 70953
LLC-load_access : 98440
LLC-load_hit : 85939
LLC-load_miss : 12501
LLC-rfo_access : 38721
LLC-rfo_hit : 18100
LLC-rfo_miss : 20621
LLC-prefetch_access : 526515
LLC-prefetch_hit : 489404
LLC-prefetch_miss : 37111
LLC-writeback_access : 93173
LLC-writeback_hit : 92453
LLC-writeback_miss : 720
LLC-prefetch_requested : 0
LLC-prefetch_issued : 0
LLC-prefetch_useful : 14191
LLC-prefetch_useless : 22496
LLC-Avg_miss_latency : 179.537
LLC-Morteza_fill_l2_prefetches : 377000

Major fault: 0 Minor fault: 6865



Printing Logs
morteza: start

SHEET
history_access_cntr : 7981229
index_access_cntr : 2407973
sab_access_cntr : 19252127
compactor_access_cntr : 16727282

morteza: end
CPU 0 L1D next line prefetcher final stats

DRAM Statistics
 CHANNEL 0
 RQ ROW_BUFFER_HIT:      19071  ROW_BUFFER_MISS:      51158
 DBUS_CONGESTED:      34728
 WQ ROW_BUFFER_HIT:       4565  ROW_BUFFER_MISS:      22032  FULL:          0

 AVG_CONGESTED_CYCLE: 6

CPU 0 Branch Prediction Accuracy: 95.8872% MPKI: 9.67286 Average ROB Occupancy at Mispredict: 64.5364

Branch types
NOT_BRANCH: 38240102 76.4802%
BRANCH_DIRECT_JUMP: 653296 1.30659%
BRANCH_INDIRECT: 37098 0.074196%
BRANCH_CONDITIONAL: 8897819 17.7956%
BRANCH_DIRECT_CALL: 992620 1.98524%
BRANCH_INDIRECT_CALL: 93046 0.186092%
BRANCH_RETURN: 1085674 2.17135%
BRANCH_OTHER: 0 0%

