Initialize SIGNATURE TABLE
ST_SET: 1
ST_WAY: 256
ST_TAG_BIT: 16
ST_TAG_MASK: ffff

Initialize PATTERN TABLE
PT_SET: 512
PT_WAY: 4
SIG_DELTA_BIT: 7
C_SIG_BIT: 4
C_DELTA_BIT: 4

Initialize PREFETCH FILTER
FILTER_SET: 1024

*** ChampSim Multicore Out-of-Order Simulator ***

Warmup Instructions: 50000000
Simulation Instructions: 50000000
Number of CPUs: 1
LLC sets: 2048
LLC ways: 16
Off-chip DRAM Size: 4096 MB Channels: 1 Width: 64-bit Data Rate: 3200 MT/s

CPU 0 runs /home/mbaradaran/ChampSim/dpc3_traces/server_020.champsimtrace.xz
CPU 0 L1I next line prefetcher
CPU 0 L1D next line prefetcher
Heartbeat CPU 0 instructions: 10000003 cycles: 3621498 heartbeat IPC: 2.76129 cumulative IPC: 2.76129 (Simulation time: 0 hr 1 min 53 sec) 
Heartbeat CPU 0 instructions: 20000002 cycles: 7247061 heartbeat IPC: 2.75819 cumulative IPC: 2.75974 (Simulation time: 0 hr 3 min 46 sec) 
Heartbeat CPU 0 instructions: 30000001 cycles: 10865647 heartbeat IPC: 2.76351 cumulative IPC: 2.761 (Simulation time: 0 hr 5 min 44 sec) 
Heartbeat CPU 0 instructions: 40000002 cycles: 14485738 heartbeat IPC: 2.76236 cumulative IPC: 2.76134 (Simulation time: 0 hr 7 min 41 sec) 
Heartbeat CPU 0 instructions: 50000001 cycles: 18119208 heartbeat IPC: 2.75219 cumulative IPC: 2.7595 (Simulation time: 0 hr 9 min 43 sec) 

Warmup complete CPU 0 instructions: 50000001 cycles: 18119208 (Simulation time: 0 hr 9 min 43 sec) 

Heartbeat CPU 0 instructions: 60000003 cycles: 35491177 heartbeat IPC: 0.57564 cumulative IPC: 0.57564 (Simulation time: 0 hr 12 min 26 sec) 
Heartbeat CPU 0 instructions: 70000002 cycles: 52865855 heartbeat IPC: 0.57555 cumulative IPC: 0.575595 (Simulation time: 0 hr 15 min 4 sec) 
Heartbeat CPU 0 instructions: 80000002 cycles: 70044211 heartbeat IPC: 0.582128 cumulative IPC: 0.577756 (Simulation time: 0 hr 17 min 34 sec) 
Heartbeat CPU 0 instructions: 90000001 cycles: 87228014 heartbeat IPC: 0.581943 cumulative IPC: 0.578797 (Simulation time: 0 hr 20 min 6 sec) 
Heartbeat CPU 0 instructions: 100000002 cycles: 104403130 heartbeat IPC: 0.582238 cumulative IPC: 0.579482 (Simulation time: 0 hr 22 min 39 sec) 
Finished CPU 0 instructions: 50000001 cycles: 86283922 cumulative IPC: 0.579482 (Simulation time: 0 hr 22 min 39 sec) 

ChampSim completed all CPUs

Region of Interest Statistics

CPU 0 cumulative IPC: 0.579482 instructions: 50000001 cycles: 86283922

SHEET
IPC : 0.579482

L1D TOTAL     ACCESS:   18635530  HIT:   16431326  MISS:    2204204
L1D LOAD      ACCESS:    7049206  HIT:    6331599  MISS:     717607
L1D RFO       ACCESS:    5801618  HIT:    4855722  MISS:     945896
L1D PREFETCH  ACCESS:    5784706  HIT:    5244005  MISS:     540701
L1D WRITEBACK ACCESS:          0  HIT:          0  MISS:          0
L1D PREFETCH  REQUESTED:    7089780  ISSUED:    6889693  USEFUL:     201421  USELESS:     339198
L1D AVERAGE MISS LATENCY: 175.762 cycles
L1D

SHEET
L1D-total_access : 18635530
L1D-total_hit : 16431326
L1D-total_miss : 2204204
L1D-load_access : 7049206
L1D-load_hit : 6331599
L1D-load_miss : 717607
L1D-rfo_access : 5801618
L1D-rfo_hit : 4855722
L1D-rfo_miss : 945896
L1D-prefetch_access : 5784706
L1D-prefetch_hit : 5244005
L1D-prefetch_miss : 540701
L1D-writeback_access : 0
L1D-writeback_hit : 0
L1D-writeback_miss : 0
L1D-prefetch_requested : 7089780
L1D-prefetch_issued : 6889693
L1D-prefetch_useful : 201421
L1D-prefetch_useless : 339198
L1D-Avg_miss_latency : 175.762
L1D-Morteza_fill_l2_prefetches : 0

L1I TOTAL     ACCESS:   14797656  HIT:   11880749  MISS:    2916907
L1I LOAD      ACCESS:   10084559  HIT:   10052697  MISS:      31862
L1I RFO       ACCESS:          0  HIT:          0  MISS:          0
L1I PREFETCH  ACCESS:    4713097  HIT:    1828052  MISS:    2885045
L1I WRITEBACK ACCESS:          0  HIT:          0  MISS:          0
L1I PREFETCH  REQUESTED:    4896818  ISSUED:    4896818  USEFUL:    2523432  USELESS:     361641
L1I AVERAGE MISS LATENCY: 17.8184 cycles
L1I

SHEET
L1I-total_access : 14797656
L1I-total_hit : 11880749
L1I-total_miss : 2916907
L1I-load_access : 10084559
L1I-load_hit : 10052697
L1I-load_miss : 31862
L1I-rfo_access : 0
L1I-rfo_hit : 0
L1I-rfo_miss : 0
L1I-prefetch_access : 4713097
L1I-prefetch_hit : 1828052
L1I-prefetch_miss : 2885045
L1I-writeback_access : 0
L1I-writeback_hit : 0
L1I-writeback_miss : 0
L1I-prefetch_requested : 4896818
L1I-prefetch_issued : 4896818
L1I-prefetch_useful : 2523432
L1I-prefetch_useless : 361641
L1I-Avg_miss_latency : 17.8184
L1I-Morteza_fill_l2_prefetches : 0

L2C TOTAL     ACCESS:    7367471  HIT:    5511902  MISS:    1855569
L2C LOAD      ACCESS:     508626  HIT:     244965  MISS:     263661
L2C RFO       ACCESS:     945508  HIT:      20093  MISS:     925415
L2C PREFETCH  ACCESS:    4749748  HIT:    4086079  MISS:     663669
L2C WRITEBACK ACCESS:    1163589  HIT:    1160765  MISS:       2824
L2C PREFETCH  REQUESTED:    4942810  ISSUED:    4935394  USEFUL:      23291  USELESS:     639215
L2C AVERAGE MISS LATENCY: 213.33 cycles
L2C

SHEET
L2C-total_access : 7367471
L2C-total_hit : 5511902
L2C-total_miss : 1855569
L2C-load_access : 508626
L2C-load_hit : 244965
L2C-load_miss : 263661
L2C-rfo_access : 945508
L2C-rfo_hit : 20093
L2C-rfo_miss : 925415
L2C-prefetch_access : 4749748
L2C-prefetch_hit : 4086079
L2C-prefetch_miss : 663669
L2C-writeback_access : 1163589
L2C-writeback_hit : 1160765
L2C-writeback_miss : 2824
L2C-prefetch_requested : 4942810
L2C-prefetch_issued : 4935394
L2C-prefetch_useful : 23291
L2C-prefetch_useless : 639215
L2C-Avg_miss_latency : 213.33
L2C-Morteza_fill_l2_prefetches : 1127494

LLC TOTAL     ACCESS:    4209289  HIT:    2743080  MISS:    1466209
LLC LOAD      ACCESS:     263540  HIT:     162592  MISS:     100948
LLC RFO       ACCESS:     925377  HIT:     137786  MISS:     787591
LLC PREFETCH  ACCESS:    1921672  HIT:    1346073  MISS:     575599
LLC WRITEBACK ACCESS:    1098700  HIT:    1096629  MISS:       2071
LLC PREFETCH  REQUESTED:          0  ISSUED:          0  USEFUL:      33241  USELESS:     542515
LLC AVERAGE MISS LATENCY: 280.018 cycles
LLC

SHEET
LLC-total_access : 4209289
LLC-total_hit : 2743080
LLC-total_miss : 1466209
LLC-load_access : 263540
LLC-load_hit : 162592
LLC-load_miss : 100948
LLC-rfo_access : 925377
LLC-rfo_hit : 137786
LLC-rfo_miss : 787591
LLC-prefetch_access : 1921672
LLC-prefetch_hit : 1346073
LLC-prefetch_miss : 575599
LLC-writeback_access : 1098700
LLC-writeback_hit : 1096629
LLC-writeback_miss : 2071
LLC-prefetch_requested : 0
LLC-prefetch_issued : 0
LLC-prefetch_useful : 33241
LLC-prefetch_useless : 542515
LLC-Avg_miss_latency : 280.018
LLC-Morteza_fill_l2_prefetches : 1008603

Major fault: 0 Minor fault: 22091
I-Shadow cache 408 bytes
Touched + WorthPF tables 24576 bytes 
MMA filter 174 bytes 
FNL filter 272 bytes 
TOTAL PREFETCHER STORAGE SIZE: 98134 bytes
CPU 0 L1I next line prefetcher final stats

 morteza stats start 

SHEET
fnlfilter_access_cntr : 25997585
iShadow_access_cntr : 43011260
missahead_access_cntr : 8605957
mmafilter_access_cntr : 13710645
touched_access_cntr : 65255780
worthpf_access_cntr : 24407094


morteza stats endCPU 0 L1D next line prefetcher final stats

DRAM Statistics
 CHANNEL 0
 RQ ROW_BUFFER_HIT:     415501  ROW_BUFFER_MISS:    1048327
 DBUS_CONGESTED:    1464209
 WQ ROW_BUFFER_HIT:     246731  ROW_BUFFER_MISS:     644430  FULL:          0

 AVG_CONGESTED_CYCLE: 6

CPU 0 Branch Prediction Accuracy: 99.712% MPKI: 0.47638 Average ROB Occupancy at Mispredict: 214.221

Branch types
NOT_BRANCH: 41729604 83.4592%
BRANCH_DIRECT_JUMP: 458221 0.916442%
BRANCH_INDIRECT: 49088 0.098176%
BRANCH_CONDITIONAL: 5938541 11.8771%
BRANCH_DIRECT_CALL: 745133 1.49027%
BRANCH_INDIRECT_CALL: 167110 0.33422%
BRANCH_RETURN: 912224 1.82445%
BRANCH_OTHER: 0 0%

