Initialize SIGNATURE TABLE
ST_SET: 1
ST_WAY: 256
ST_TAG_BIT: 16
ST_TAG_MASK: ffff

Initialize PATTERN TABLE
PT_SET: 512
PT_WAY: 4
SIG_DELTA_BIT: 7
C_SIG_BIT: 4
C_DELTA_BIT: 4

Initialize PREFETCH FILTER
FILTER_SET: 1024

*** ChampSim Multicore Out-of-Order Simulator ***

Warmup Instructions: 50000000
Simulation Instructions: 50000000
Number of CPUs: 1
LLC sets: 2048
LLC ways: 16
Off-chip DRAM Size: 4096 MB Channels: 1 Width: 64-bit Data Rate: 3200 MT/s

CPU 0 runs /home/mbaradaran/ChampSim/dpc3_traces/server_009.champsimtrace.xz
CPU 0 L1I next line prefetcher
CPU 0 L1D next line prefetcher
Heartbeat CPU 0 instructions: 10000003 cycles: 3195797 heartbeat IPC: 3.12911 cumulative IPC: 3.12911 (Simulation time: 0 hr 1 min 38 sec) 
Heartbeat CPU 0 instructions: 20000001 cycles: 6384135 heartbeat IPC: 3.13643 cumulative IPC: 3.13277 (Simulation time: 0 hr 3 min 23 sec) 
Heartbeat CPU 0 instructions: 30000002 cycles: 9587104 heartbeat IPC: 3.1221 cumulative IPC: 3.1292 (Simulation time: 0 hr 5 min 5 sec) 
Heartbeat CPU 0 instructions: 40000003 cycles: 12786519 heartbeat IPC: 3.12557 cumulative IPC: 3.12829 (Simulation time: 0 hr 6 min 46 sec) 
Heartbeat CPU 0 instructions: 50000000 cycles: 16042993 heartbeat IPC: 3.07081 cumulative IPC: 3.11663 (Simulation time: 0 hr 8 min 30 sec) 

Warmup complete CPU 0 instructions: 50000004 cycles: 16042994 (Simulation time: 0 hr 8 min 30 sec) 

Heartbeat CPU 0 instructions: 60000002 cycles: 31663572 heartbeat IPC: 0.640181 cumulative IPC: 0.640181 (Simulation time: 0 hr 10 min 48 sec) 
Heartbeat CPU 0 instructions: 70000003 cycles: 52682433 heartbeat IPC: 0.475763 cumulative IPC: 0.54586 (Simulation time: 0 hr 13 min 35 sec) 
Heartbeat CPU 0 instructions: 80000000 cycles: 59781057 heartbeat IPC: 1.40872 cumulative IPC: 0.685901 (Simulation time: 0 hr 15 min 13 sec) 
Heartbeat CPU 0 instructions: 90000001 cycles: 67018818 heartbeat IPC: 1.38164 cumulative IPC: 0.784686 (Simulation time: 0 hr 16 min 51 sec) 
Heartbeat CPU 0 instructions: 100000003 cycles: 74150489 heartbeat IPC: 1.4022 cumulative IPC: 0.860474 (Simulation time: 0 hr 18 min 22 sec) 
Finished CPU 0 instructions: 50000003 cycles: 58107496 cumulative IPC: 0.860474 (Simulation time: 0 hr 18 min 22 sec) 

ChampSim completed all CPUs

Region of Interest Statistics

CPU 0 cumulative IPC: 0.860474 instructions: 50000003 cycles: 58107496

SHEET
IPC : 0.860474

L1D TOTAL     ACCESS:   21607632  HIT:   17028105  MISS:    4579527
L1D LOAD      ACCESS:    8621225  HIT:    6340093  MISS:    2281132
L1D RFO       ACCESS:    4579708  HIT:    4475239  MISS:     104469
L1D PREFETCH  ACCESS:    8406699  HIT:    6212773  MISS:    2193926
L1D WRITEBACK ACCESS:          0  HIT:          0  MISS:          0
L1D PREFETCH  REQUESTED:    8653904  ISSUED:    8556715  USEFUL:     105466  USELESS:    2088459
L1D AVERAGE MISS LATENCY: 20.3596 cycles
L1D

SHEET
L1D-total_access : 21607632
L1D-total_hit : 17028105
L1D-total_miss : 4579527
L1D-load_access : 8621225
L1D-load_hit : 6340093
L1D-load_miss : 2281132
L1D-rfo_access : 4579708
L1D-rfo_hit : 4475239
L1D-rfo_miss : 104469
L1D-prefetch_access : 8406699
L1D-prefetch_hit : 6212773
L1D-prefetch_miss : 2193926
L1D-writeback_access : 0
L1D-writeback_hit : 0
L1D-writeback_miss : 0
L1D-prefetch_requested : 8653904
L1D-prefetch_issued : 8556715
L1D-prefetch_useful : 105466
L1D-prefetch_useless : 2088459
L1D-Avg_miss_latency : 20.3596
L1D-Morteza_fill_l2_prefetches : 0

L1I TOTAL     ACCESS:   13131715  HIT:   11576470  MISS:    1555245
L1I LOAD      ACCESS:   10757363  HIT:   10645664  MISS:     111699
L1I RFO       ACCESS:          0  HIT:          0  MISS:          0
L1I PREFETCH  ACCESS:    2374352  HIT:     930806  MISS:    1443546
L1I WRITEBACK ACCESS:          0  HIT:          0  MISS:          0
L1I PREFETCH  REQUESTED:    2514178  ISSUED:    2513978  USEFUL:    1008532  USELESS:     435005
L1I AVERAGE MISS LATENCY: 29.7976 cycles
L1I

SHEET
L1I-total_access : 13131715
L1I-total_hit : 11576470
L1I-total_miss : 1555245
L1I-load_access : 10757363
L1I-load_hit : 10645664
L1I-load_miss : 111699
L1I-rfo_access : 0
L1I-rfo_hit : 0
L1I-rfo_miss : 0
L1I-prefetch_access : 2374352
L1I-prefetch_hit : 930806
L1I-prefetch_miss : 1443546
L1I-writeback_access : 0
L1I-writeback_hit : 0
L1I-writeback_miss : 0
L1I-prefetch_requested : 2514178
L1I-prefetch_issued : 2513978
L1I-prefetch_useful : 1008532
L1I-prefetch_useless : 435005
L1I-Avg_miss_latency : 29.7976
L1I-Morteza_fill_l2_prefetches : 0

L2C TOTAL     ACCESS:    7680433  HIT:    6613507  MISS:    1066926
L2C LOAD      ACCESS:    2290938  HIT:    2079298  MISS:     211640
L2C RFO       ACCESS:     103501  HIT:      63583  MISS:      39918
L2C PREFETCH  ACCESS:    5029132  HIT:    4214867  MISS:     814265
L2C WRITEBACK ACCESS:     256862  HIT:     255759  MISS:       1103
L2C PREFETCH  REQUESTED:    6916396  ISSUED:    6914920  USEFUL:      21424  USELESS:     791929
L2C AVERAGE MISS LATENCY: 47.5581 cycles
L2C

SHEET
L2C-total_access : 7680433
L2C-total_hit : 6613507
L2C-total_miss : 1066926
L2C-load_access : 2290938
L2C-load_hit : 2079298
L2C-load_miss : 211640
L2C-rfo_access : 103501
L2C-rfo_hit : 63583
L2C-rfo_miss : 39918
L2C-prefetch_access : 5029132
L2C-prefetch_hit : 4214867
L2C-prefetch_miss : 814265
L2C-writeback_access : 256862
L2C-writeback_hit : 255759
L2C-writeback_miss : 1103
L2C-prefetch_requested : 6916396
L2C-prefetch_issued : 6914920
L2C-prefetch_useful : 21424
L2C-prefetch_useless : 791929
L2C-Avg_miss_latency : 47.5581
L2C-Morteza_fill_l2_prefetches : 1310289

LLC TOTAL     ACCESS:    2341011  HIT:    2212980  MISS:     128031
LLC LOAD      ACCESS:     211390  HIT:     192690  MISS:      18700
LLC RFO       ACCESS:      39916  HIT:      31018  MISS:       8898
LLC PREFETCH  ACCESS:    1952410  HIT:    1852193  MISS:     100217
LLC WRITEBACK ACCESS:     137295  HIT:     137079  MISS:        216
LLC PREFETCH  REQUESTED:          0  ISSUED:          0  USEFUL:       9707  USELESS:      87976
LLC AVERAGE MISS LATENCY: 173.361 cycles
LLC

SHEET
LLC-total_access : 2341011
LLC-total_hit : 2212980
LLC-total_miss : 128031
LLC-load_access : 211390
LLC-load_hit : 192690
LLC-load_miss : 18700
LLC-rfo_access : 39916
LLC-rfo_hit : 31018
LLC-rfo_miss : 8898
LLC-prefetch_access : 1952410
LLC-prefetch_hit : 1852193
LLC-prefetch_miss : 100217
LLC-writeback_access : 137295
LLC-writeback_hit : 137079
LLC-writeback_miss : 216
LLC-prefetch_requested : 0
LLC-prefetch_issued : 0
LLC-prefetch_useful : 9707
LLC-prefetch_useless : 87976
LLC-Avg_miss_latency : 173.361
LLC-Morteza_fill_l2_prefetches : 1158884

Major fault: 0 Minor fault: 6355
I-Shadow cache 408 bytes
Touched + WorthPF tables 24576 bytes 
MMA filter 174 bytes 
FNL filter 272 bytes 
TOTAL PREFETCHER STORAGE SIZE: 98134 bytes
CPU 0 L1I next line prefetcher final stats

 morteza stats start 

SHEET
fnlfilter_access_cntr : 17158712
iShadow_access_cntr : 42295776
missahead_access_cntr : 4613372
mmafilter_access_cntr : 6738063
touched_access_cntr : 36212400
worthpf_access_cntr : 17640826


morteza stats endCPU 0 L1D next line prefetcher final stats

DRAM Statistics
 CHANNEL 0
 RQ ROW_BUFFER_HIT:      24728  ROW_BUFFER_MISS:     103075
 DBUS_CONGESTED:      56551
 WQ ROW_BUFFER_HIT:       8915  ROW_BUFFER_MISS:      37456  FULL:          0

 AVG_CONGESTED_CYCLE: 5

CPU 0 Branch Prediction Accuracy: 99.4713% MPKI: 1.11484 Average ROB Occupancy at Mispredict: 119.302

Branch types
NOT_BRANCH: 39456615 78.9132%
BRANCH_DIRECT_JUMP: 445350 0.8907%
BRANCH_INDIRECT: 131149 0.262298%
BRANCH_CONDITIONAL: 8130196 16.2604%
BRANCH_DIRECT_CALL: 732485 1.46497%
BRANCH_INDIRECT_CALL: 172369 0.344738%
BRANCH_RETURN: 931558 1.86312%
BRANCH_OTHER: 0 0%

