Initialize SIGNATURE TABLE
ST_SET: 1
ST_WAY: 256
ST_TAG_BIT: 16
ST_TAG_MASK: ffff

Initialize PATTERN TABLE
PT_SET: 512
PT_WAY: 4
SIG_DELTA_BIT: 7
C_SIG_BIT: 4
C_DELTA_BIT: 4

Initialize PREFETCH FILTER
FILTER_SET: 1024

*** ChampSim Multicore Out-of-Order Simulator ***

Warmup Instructions: 50000000
Simulation Instructions: 50000000
Number of CPUs: 1
LLC sets: 2048
LLC ways: 16
Off-chip DRAM Size: 4096 MB Channels: 1 Width: 64-bit Data Rate: 3200 MT/s

CPU 0 runs /home/mbaradaran/ChampSim/dpc3_traces/server_001.champsimtrace.xz
CPU 0 L1I next line prefetcher
CPU 0 L1D next line prefetcher
Heartbeat CPU 0 instructions: 10000002 cycles: 3155079 heartbeat IPC: 3.16949 cumulative IPC: 3.16949 (Simulation time: 0 hr 1 min 30 sec) 
Heartbeat CPU 0 instructions: 20000000 cycles: 6369440 heartbeat IPC: 3.11104 cumulative IPC: 3.13999 (Simulation time: 0 hr 3 min 7 sec) 
Heartbeat CPU 0 instructions: 30000003 cycles: 9555177 heartbeat IPC: 3.13899 cumulative IPC: 3.13966 (Simulation time: 0 hr 4 min 47 sec) 
Heartbeat CPU 0 instructions: 40000002 cycles: 12762258 heartbeat IPC: 3.1181 cumulative IPC: 3.13424 (Simulation time: 0 hr 6 min 20 sec) 
Heartbeat CPU 0 instructions: 50000003 cycles: 15980744 heartbeat IPC: 3.10705 cumulative IPC: 3.12877 (Simulation time: 0 hr 7 min 59 sec) 

Warmup complete CPU 0 instructions: 50000003 cycles: 15980744 (Simulation time: 0 hr 7 min 59 sec) 

Heartbeat CPU 0 instructions: 60000000 cycles: 23062030 heartbeat IPC: 1.41217 cumulative IPC: 1.41217 (Simulation time: 0 hr 9 min 32 sec) 
Heartbeat CPU 0 instructions: 70000001 cycles: 29875231 heartbeat IPC: 1.46774 cumulative IPC: 1.43942 (Simulation time: 0 hr 11 min 7 sec) 
Heartbeat CPU 0 instructions: 80000002 cycles: 36676428 heartbeat IPC: 1.47033 cumulative IPC: 1.44958 (Simulation time: 0 hr 12 min 43 sec) 
Heartbeat CPU 0 instructions: 90000002 cycles: 43814116 heartbeat IPC: 1.40101 cumulative IPC: 1.43712 (Simulation time: 0 hr 14 min 19 sec) 
Heartbeat CPU 0 instructions: 100000003 cycles: 50571135 heartbeat IPC: 1.47994 cumulative IPC: 1.44549 (Simulation time: 0 hr 15 min 57 sec) 
Finished CPU 0 instructions: 50000000 cycles: 34590391 cumulative IPC: 1.44549 (Simulation time: 0 hr 15 min 57 sec) 

ChampSim completed all CPUs

Region of Interest Statistics

CPU 0 cumulative IPC: 1.44549 instructions: 50000000 cycles: 34590391

SHEET
IPC : 1.44549

L1D TOTAL     ACCESS:   17591977  HIT:   17080869  MISS:     511108
L1D LOAD      ACCESS:    6432506  HIT:    6226595  MISS:     205911
L1D RFO       ACCESS:    5052579  HIT:    4969959  MISS:      82620
L1D PREFETCH  ACCESS:    6106892  HIT:    5884315  MISS:     222577
L1D WRITEBACK ACCESS:          0  HIT:          0  MISS:          0
L1D PREFETCH  REQUESTED:    6461926  ISSUED:    6284786  USEFUL:     130820  USELESS:      91885
L1D AVERAGE MISS LATENCY: 95.8983 cycles
L1D

SHEET
L1D-total_access : 17591977
L1D-total_hit : 17080869
L1D-total_miss : 511108
L1D-load_access : 6432506
L1D-load_hit : 6226595
L1D-load_miss : 205911
L1D-rfo_access : 5052579
L1D-rfo_hit : 4969959
L1D-rfo_miss : 82620
L1D-prefetch_access : 6106892
L1D-prefetch_hit : 5884315
L1D-prefetch_miss : 222577
L1D-writeback_access : 0
L1D-writeback_hit : 0
L1D-writeback_miss : 0
L1D-prefetch_requested : 6461926
L1D-prefetch_issued : 6284786
L1D-prefetch_useful : 130820
L1D-prefetch_useless : 91885
L1D-Avg_miss_latency : 95.8983
L1D-Morteza_fill_l2_prefetches : 0

L1I TOTAL     ACCESS:   10055748  HIT:    9128407  MISS:     927341
L1I LOAD      ACCESS:    8242957  HIT:    8201347  MISS:      41610
L1I RFO       ACCESS:          0  HIT:          0  MISS:          0
L1I PREFETCH  ACCESS:    1812791  HIT:     927060  MISS:     885731
L1I WRITEBACK ACCESS:          0  HIT:          0  MISS:          0
L1I PREFETCH  REQUESTED:    1865711  ISSUED:    1865558  USEFUL:     657582  USELESS:     228135
L1I AVERAGE MISS LATENCY: 29.8199 cycles
L1I

SHEET
L1I-total_access : 10055748
L1I-total_hit : 9128407
L1I-total_miss : 927341
L1I-load_access : 8242957
L1I-load_hit : 8201347
L1I-load_miss : 41610
L1I-rfo_access : 0
L1I-rfo_hit : 0
L1I-rfo_miss : 0
L1I-prefetch_access : 1812791
L1I-prefetch_hit : 927060
L1I-prefetch_miss : 885731
L1I-writeback_access : 0
L1I-writeback_hit : 0
L1I-writeback_miss : 0
L1I-prefetch_requested : 1865711
L1I-prefetch_issued : 1865558
L1I-prefetch_useful : 657582
L1I-prefetch_useless : 228135
L1I-Avg_miss_latency : 29.8199
L1I-Morteza_fill_l2_prefetches : 0

L2C TOTAL     ACCESS:    2133157  HIT:    1652894  MISS:     480263
L2C LOAD      ACCESS:     182824  HIT:      89240  MISS:      93584
L2C RFO       ACCESS:      80922  HIT:      10160  MISS:      70762
L2C PREFETCH  ACCESS:    1661548  HIT:    1346055  MISS:     315493
L2C WRITEBACK ACCESS:     207863  HIT:     207439  MISS:        424
L2C PREFETCH  REQUESTED:    2197036  ISSUED:    2194381  USEFUL:      20659  USELESS:     295021
L2C AVERAGE MISS LATENCY: 126.765 cycles
L2C

SHEET
L2C-total_access : 2133157
L2C-total_hit : 1652894
L2C-total_miss : 480263
L2C-load_access : 182824
L2C-load_hit : 89240
L2C-load_miss : 93584
L2C-rfo_access : 80922
L2C-rfo_hit : 10160
L2C-rfo_miss : 70762
L2C-prefetch_access : 1661548
L2C-prefetch_hit : 1346055
L2C-prefetch_miss : 315493
L2C-writeback_access : 207863
L2C-writeback_hit : 207439
L2C-writeback_miss : 424
L2C-prefetch_requested : 2197036
L2C-prefetch_issued : 2194381
L2C-prefetch_useful : 20659
L2C-prefetch_useless : 295021
L2C-Avg_miss_latency : 126.765
L2C-Morteza_fill_l2_prefetches : 512523

LLC TOTAL     ACCESS:    1222380  HIT:     888987  MISS:     333393
LLC LOAD      ACCESS:      93490  HIT:      62955  MISS:      30535
LLC RFO       ACCESS:      70760  HIT:       6780  MISS:      63980
LLC PREFETCH  ACCESS:     890402  HIT:     651828  MISS:     238574
LLC WRITEBACK ACCESS:     167728  HIT:     167424  MISS:        304
LLC PREFETCH  REQUESTED:          0  ISSUED:          0  USEFUL:      26775  USELESS:     207743
LLC AVERAGE MISS LATENCY: 229.204 cycles
LLC

SHEET
LLC-total_access : 1222380
LLC-total_hit : 888987
LLC-total_miss : 333393
LLC-load_access : 93490
LLC-load_hit : 62955
LLC-load_miss : 30535
LLC-rfo_access : 70760
LLC-rfo_hit : 6780
LLC-rfo_miss : 63980
LLC-prefetch_access : 890402
LLC-prefetch_hit : 651828
LLC-prefetch_miss : 238574
LLC-writeback_access : 167728
LLC-writeback_hit : 167424
LLC-writeback_miss : 304
LLC-prefetch_requested : 0
LLC-prefetch_issued : 0
LLC-prefetch_useful : 26775
LLC-prefetch_useless : 207743
LLC-Avg_miss_latency : 229.204
LLC-Morteza_fill_l2_prefetches : 453335

Major fault: 0 Minor fault: 16700
I-Shadow cache 408 bytes
Touched + WorthPF tables 24576 bytes 
MMA filter 174 bytes 
FNL filter 272 bytes 
TOTAL PREFETCHER STORAGE SIZE: 98134 bytes
CPU 0 L1I next line prefetcher final stats

 morteza stats start 

SHEET
fnlfilter_access_cntr : 12364120
iShadow_access_cntr : 36216146
missahead_access_cntr : 2458529
mmafilter_access_cntr : 4252777
touched_access_cntr : 25405220
worthpf_access_cntr : 12100126


morteza stats endCPU 0 L1D next line prefetcher final stats

DRAM Statistics
 CHANNEL 0
 RQ ROW_BUFFER_HIT:     103201  ROW_BUFFER_MISS:     229849
 DBUS_CONGESTED:     232286
 WQ ROW_BUFFER_HIT:      35430  ROW_BUFFER_MISS:     123835  FULL:          0

 AVG_CONGESTED_CYCLE: 6

CPU 0 Branch Prediction Accuracy: 99.5889% MPKI: 0.70108 Average ROB Occupancy at Mispredict: 115.156

Branch types
NOT_BRANCH: 41473584 82.9472%
BRANCH_DIRECT_JUMP: 347941 0.695882%
BRANCH_INDIRECT: 148212 0.296424%
BRANCH_CONDITIONAL: 6817277 13.6346%
BRANCH_DIRECT_CALL: 570725 1.14145%
BRANCH_INDIRECT_CALL: 25133 0.050266%
BRANCH_RETURN: 617123 1.23425%
BRANCH_OTHER: 0 0%

