Initialize SIGNATURE TABLE
ST_SET: 1
ST_WAY: 256
ST_TAG_BIT: 16
ST_TAG_MASK: ffff

Initialize PATTERN TABLE
PT_SET: 512
PT_WAY: 4
SIG_DELTA_BIT: 7
C_SIG_BIT: 4
C_DELTA_BIT: 4

Initialize PREFETCH FILTER
FILTER_SET: 1024

*** ChampSim Multicore Out-of-Order Simulator ***

Warmup Instructions: 50000000
Simulation Instructions: 50000000
Number of CPUs: 1
LLC sets: 2048
LLC ways: 16
Off-chip DRAM Size: 4096 MB Channels: 1 Width: 64-bit Data Rate: 3200 MT/s

CPU 0 runs /home/mbaradaran/ChampSim/dpc3_traces/server_030.champsimtrace.xz
CPU 0 L1I next line prefetcher
CPU 0 L1D next line prefetcher
Heartbeat CPU 0 instructions: 10000003 cycles: 3507141 heartbeat IPC: 2.85133 cumulative IPC: 2.85133 (Simulation time: 0 hr 1 min 52 sec) 
Heartbeat CPU 0 instructions: 20000003 cycles: 7015057 heartbeat IPC: 2.8507 cumulative IPC: 2.85101 (Simulation time: 0 hr 3 min 44 sec) 
Heartbeat CPU 0 instructions: 30000000 cycles: 10521299 heartbeat IPC: 2.85206 cumulative IPC: 2.85136 (Simulation time: 0 hr 5 min 41 sec) 
Heartbeat CPU 0 instructions: 40000002 cycles: 14028390 heartbeat IPC: 2.85137 cumulative IPC: 2.85136 (Simulation time: 0 hr 7 min 32 sec) 
Heartbeat CPU 0 instructions: 50000002 cycles: 17539130 heartbeat IPC: 2.8484 cumulative IPC: 2.85077 (Simulation time: 0 hr 9 min 32 sec) 

Warmup complete CPU 0 instructions: 50000002 cycles: 17539130 (Simulation time: 0 hr 9 min 32 sec) 

Heartbeat CPU 0 instructions: 60000000 cycles: 24580777 heartbeat IPC: 1.42012 cumulative IPC: 1.42012 (Simulation time: 0 hr 11 min 30 sec) 
Heartbeat CPU 0 instructions: 70000000 cycles: 31630958 heartbeat IPC: 1.4184 cumulative IPC: 1.41926 (Simulation time: 0 hr 13 min 27 sec) 
Heartbeat CPU 0 instructions: 80000001 cycles: 38690251 heartbeat IPC: 1.41657 cumulative IPC: 1.41836 (Simulation time: 0 hr 15 min 27 sec) 
*** Reached end of trace for Core: 0 Repeating trace: /home/mbaradaran/ChampSim/dpc3_traces/server_030.champsimtrace.xz
Heartbeat CPU 0 instructions: 90000002 cycles: 45747504 heartbeat IPC: 1.41698 cumulative IPC: 1.41802 (Simulation time: 0 hr 17 min 24 sec) 
Heartbeat CPU 0 instructions: 100000002 cycles: 52790132 heartbeat IPC: 1.41992 cumulative IPC: 1.4184 (Simulation time: 0 hr 19 min 21 sec) 
Finished CPU 0 instructions: 50000000 cycles: 35251002 cumulative IPC: 1.4184 (Simulation time: 0 hr 19 min 21 sec) 

ChampSim completed all CPUs

Region of Interest Statistics

CPU 0 cumulative IPC: 1.4184 instructions: 50000000 cycles: 35251002

SHEET
IPC : 1.4184

L1D TOTAL     ACCESS:   19155549  HIT:   17079686  MISS:    2075863
L1D LOAD      ACCESS:    6766810  HIT:    5712897  MISS:    1053913
L1D RFO       ACCESS:    6169020  HIT:    5883420  MISS:     285600
L1D PREFETCH  ACCESS:    6219719  HIT:    5483369  MISS:     736350
L1D WRITEBACK ACCESS:          0  HIT:          0  MISS:          0
L1D PREFETCH  REQUESTED:    6819331  ISSUED:    6684505  USEFUL:     180797  USELESS:     555646
L1D AVERAGE MISS LATENCY: 19.6989 cycles
L1D

SHEET
L1D-total_access : 19155549
L1D-total_hit : 17079686
L1D-total_miss : 2075863
L1D-load_access : 6766810
L1D-load_hit : 5712897
L1D-load_miss : 1053913
L1D-rfo_access : 6169020
L1D-rfo_hit : 5883420
L1D-rfo_miss : 285600
L1D-prefetch_access : 6219719
L1D-prefetch_hit : 5483369
L1D-prefetch_miss : 736350
L1D-writeback_access : 0
L1D-writeback_hit : 0
L1D-writeback_miss : 0
L1D-prefetch_requested : 6819331
L1D-prefetch_issued : 6684505
L1D-prefetch_useful : 180797
L1D-prefetch_useless : 555646
L1D-Avg_miss_latency : 19.6989
L1D-Morteza_fill_l2_prefetches : 0

L1I TOTAL     ACCESS:   15385295  HIT:   11311545  MISS:    4073750
L1I LOAD      ACCESS:    9801424  HIT:    9710693  MISS:      90731
L1I RFO       ACCESS:          0  HIT:          0  MISS:          0
L1I PREFETCH  ACCESS:    5583871  HIT:    1600852  MISS:    3983019
L1I WRITEBACK ACCESS:          0  HIT:          0  MISS:          0
L1I PREFETCH  REQUESTED:    5824374  ISSUED:    5823456  USEFUL:    2955604  USELESS:    1027390
L1I AVERAGE MISS LATENCY: 18.2187 cycles
L1I

SHEET
L1I-total_access : 15385295
L1I-total_hit : 11311545
L1I-total_miss : 4073750
L1I-load_access : 9801424
L1I-load_hit : 9710693
L1I-load_miss : 90731
L1I-rfo_access : 0
L1I-rfo_hit : 0
L1I-rfo_miss : 0
L1I-prefetch_access : 5583871
L1I-prefetch_hit : 1600852
L1I-prefetch_miss : 3983019
L1I-writeback_access : 0
L1I-writeback_hit : 0
L1I-writeback_miss : 0
L1I-prefetch_requested : 5824374
L1I-prefetch_issued : 5823456
L1I-prefetch_useful : 2955604
L1I-prefetch_useless : 1027390
L1I-Avg_miss_latency : 18.2187
L1I-Morteza_fill_l2_prefetches : 0

L2C TOTAL     ACCESS:    8435945  HIT:    7582232  MISS:     853713
L2C LOAD      ACCESS:     919180  HIT:     764674  MISS:     154506
L2C RFO       ACCESS:     283430  HIT:     215293  MISS:      68137
L2C PREFETCH  ACCESS:    6617830  HIT:    5991642  MISS:     626188
L2C WRITEBACK ACCESS:     615505  HIT:     610623  MISS:       4882
L2C PREFETCH  REQUESTED:    8338264  ISSUED:    8314976  USEFUL:      11490  USELESS:     614305
L2C AVERAGE MISS LATENCY: 34.8816 cycles
L2C

SHEET
L2C-total_access : 8435945
L2C-total_hit : 7582232
L2C-total_miss : 853713
L2C-load_access : 919180
L2C-load_hit : 764674
L2C-load_miss : 154506
L2C-rfo_access : 283430
L2C-rfo_hit : 215293
L2C-rfo_miss : 68137
L2C-prefetch_access : 6617830
L2C-prefetch_hit : 5991642
L2C-prefetch_miss : 626188
L2C-writeback_access : 615505
L2C-writeback_hit : 610623
L2C-writeback_miss : 4882
L2C-prefetch_requested : 8338264
L2C-prefetch_issued : 8314976
L2C-prefetch_useful : 11490
L2C-prefetch_useless : 614305
L2C-Avg_miss_latency : 34.8816
L2C-Morteza_fill_l2_prefetches : 1758431

LLC TOTAL     ACCESS:    2973411  HIT:    2948679  MISS:      24732
LLC LOAD      ACCESS:     154398  HIT:     151396  MISS:       3002
LLC RFO       ACCESS:      68115  HIT:      66315  MISS:       1800
LLC PREFETCH  ACCESS:    2619830  HIT:    2600011  MISS:      19819
LLC WRITEBACK ACCESS:     131068  HIT:     130957  MISS:        111
LLC PREFETCH  REQUESTED:          0  ISSUED:          0  USEFUL:        890  USELESS:      16968
LLC AVERAGE MISS LATENCY: 149.529 cycles
LLC

SHEET
LLC-total_access : 2973411
LLC-total_hit : 2948679
LLC-total_miss : 24732
LLC-load_access : 154398
LLC-load_hit : 151396
LLC-load_miss : 3002
LLC-rfo_access : 68115
LLC-rfo_hit : 66315
LLC-rfo_miss : 1800
LLC-prefetch_access : 2619830
LLC-prefetch_hit : 2600011
LLC-prefetch_miss : 19819
LLC-writeback_access : 131068
LLC-writeback_hit : 130957
LLC-writeback_miss : 111
LLC-prefetch_requested : 0
LLC-prefetch_issued : 0
LLC-prefetch_useful : 890
LLC-prefetch_useless : 16968
LLC-Avg_miss_latency : 149.529
LLC-Morteza_fill_l2_prefetches : 2007317

Major fault: 0 Minor fault: 2040
I-Shadow cache 408 bytes
Touched + WorthPF tables 24576 bytes 
MMA filter 174 bytes 
FNL filter 272 bytes 
TOTAL PREFETCHER STORAGE SIZE: 98134 bytes
CPU 0 L1I next line prefetcher final stats

 morteza stats start 

SHEET
fnlfilter_access_cntr : 29857451
iShadow_access_cntr : 42986334
missahead_access_cntr : 8813501
mmafilter_access_cntr : 15128703
touched_access_cntr : 70103040
worthpf_access_cntr : 29619831


morteza stats endCPU 0 L1D next line prefetcher final stats

DRAM Statistics
 CHANNEL 0
 RQ ROW_BUFFER_HIT:       7633  ROW_BUFFER_MISS:      16988
 DBUS_CONGESTED:       8181
 WQ ROW_BUFFER_HIT:        219  ROW_BUFFER_MISS:       2663  FULL:          0

 AVG_CONGESTED_CYCLE: 5

CPU 0 Branch Prediction Accuracy: 99.8445% MPKI: 0.29148 Average ROB Occupancy at Mispredict: 177.353

Branch types
NOT_BRANCH: 40628075 81.2562%
BRANCH_DIRECT_JUMP: 490941 0.981882%
BRANCH_INDIRECT: 175854 0.351708%
BRANCH_CONDITIONAL: 6321415 12.6428%
BRANCH_DIRECT_CALL: 1002072 2.00414%
BRANCH_INDIRECT_CALL: 189783 0.379566%
BRANCH_RETURN: 1191851 2.3837%
BRANCH_OTHER: 0 0%

