Initialize SIGNATURE TABLE
ST_SET: 1
ST_WAY: 256
ST_TAG_BIT: 16
ST_TAG_MASK: ffff

Initialize PATTERN TABLE
PT_SET: 512
PT_WAY: 4
SIG_DELTA_BIT: 7
C_SIG_BIT: 4
C_DELTA_BIT: 4

Initialize PREFETCH FILTER
FILTER_SET: 1024
MANA initialize 
tds: 2 tdm: 2
size MANA SINGLE: 15.5 KB
size MANA NULTIPLE: 0 KB
size HOBPT: 0.703125 KB
size SRQ: 0.0644531 KB
size SABs: 0.0402832 KB
size prefetch queue: 0.453125 KB
total: 16.761 KB

*** ChampSim Multicore Out-of-Order Simulator ***

Warmup Instructions: 50000000
Simulation Instructions: 50000000
Number of CPUs: 1
LLC sets: 2048
LLC ways: 16
Off-chip DRAM Size: 4096 MB Channels: 1 Width: 64-bit Data Rate: 3200 MT/s

CPU 0 runs /home/mbaradaran/ChampSim/dpc3_traces/server_028.champsimtrace.xz
CPU 0 L1D next line prefetcher
Heartbeat CPU 0 instructions: 10000001 cycles: 3502316 heartbeat IPC: 2.85525 cumulative IPC: 2.85525 (Simulation time: 0 hr 1 min 23 sec) 
Heartbeat CPU 0 instructions: 20000002 cycles: 7004349 heartbeat IPC: 2.85548 cumulative IPC: 2.85537 (Simulation time: 0 hr 2 min 45 sec) 
Heartbeat CPU 0 instructions: 30000001 cycles: 10504621 heartbeat IPC: 2.85692 cumulative IPC: 2.85589 (Simulation time: 0 hr 4 min 18 sec) 
Heartbeat CPU 0 instructions: 40000002 cycles: 14011393 heartbeat IPC: 2.85163 cumulative IPC: 2.85482 (Simulation time: 0 hr 5 min 40 sec) 
Heartbeat CPU 0 instructions: 50000001 cycles: 17514330 heartbeat IPC: 2.85475 cumulative IPC: 2.85481 (Simulation time: 0 hr 7 min 10 sec) 

Warmup complete CPU 0 instructions: 50000001 cycles: 17514330 (Simulation time: 0 hr 7 min 10 sec) 

Heartbeat CPU 0 instructions: 60000000 cycles: 25443273 heartbeat IPC: 1.2612 cumulative IPC: 1.2612 (Simulation time: 0 hr 8 min 34 sec) 
Heartbeat CPU 0 instructions: 70000000 cycles: 33337976 heartbeat IPC: 1.26667 cumulative IPC: 1.26393 (Simulation time: 0 hr 9 min 56 sec) 
Heartbeat CPU 0 instructions: 80000000 cycles: 41247412 heartbeat IPC: 1.26431 cumulative IPC: 1.26406 (Simulation time: 0 hr 11 min 13 sec) 
*** Reached end of trace for Core: 0 Repeating trace: /home/mbaradaran/ChampSim/dpc3_traces/server_028.champsimtrace.xz
Heartbeat CPU 0 instructions: 90000000 cycles: 49133032 heartbeat IPC: 1.26813 cumulative IPC: 1.26507 (Simulation time: 0 hr 12 min 38 sec) 
Heartbeat CPU 0 instructions: 100000003 cycles: 57002678 heartbeat IPC: 1.27071 cumulative IPC: 1.2662 (Simulation time: 0 hr 14 min 2 sec) 
Finished CPU 0 instructions: 50000002 cycles: 39488348 cumulative IPC: 1.2662 (Simulation time: 0 hr 14 min 2 sec) 

ChampSim completed all CPUs

Region of Interest Statistics

CPU 0 cumulative IPC: 1.2662 instructions: 50000002 cycles: 39488348

SHEET
IPC : 1.2662

L1D TOTAL     ACCESS:   19519962  HIT:   17445563  MISS:    2074399
L1D LOAD      ACCESS:    6949613  HIT:    5902478  MISS:    1047135
L1D RFO       ACCESS:    6119659  HIT:    5836185  MISS:     283474
L1D PREFETCH  ACCESS:    6450690  HIT:    5706900  MISS:     743790
L1D WRITEBACK ACCESS:          0  HIT:          0  MISS:          0
L1D PREFETCH  REQUESTED:    7009591  ISSUED:    6913909  USEFUL:     176892  USELESS:     566899
L1D AVERAGE MISS LATENCY: 21.1445 cycles
L1D

SHEET
L1D-total_access : 19519962
L1D-total_hit : 17445563
L1D-total_miss : 2074399
L1D-load_access : 6949613
L1D-load_hit : 5902478
L1D-load_miss : 1047135
L1D-rfo_access : 6119659
L1D-rfo_hit : 5836185
L1D-rfo_miss : 283474
L1D-prefetch_access : 6450690
L1D-prefetch_hit : 5706900
L1D-prefetch_miss : 743790
L1D-writeback_access : 0
L1D-writeback_hit : 0
L1D-writeback_miss : 0
L1D-prefetch_requested : 7009591
L1D-prefetch_issued : 6913909
L1D-prefetch_useful : 176892
L1D-prefetch_useless : 566899
L1D-Avg_miss_latency : 21.1445
L1D-Morteza_fill_l2_prefetches : 0

L1I TOTAL     ACCESS:   19716085  HIT:   15864806  MISS:    3851279
L1I LOAD      ACCESS:    9482204  HIT:    8454226  MISS:    1027978
L1I RFO       ACCESS:          0  HIT:          0  MISS:          0
L1I PREFETCH  ACCESS:   10233881  HIT:    7410580  MISS:    2823301
L1I WRITEBACK ACCESS:          0  HIT:          0  MISS:          0
L1I PREFETCH  REQUESTED:   11532788  ISSUED:   11520509  USEFUL:    1949226  USELESS:     874080
L1I AVERAGE MISS LATENCY: 15.6383 cycles
L1I

SHEET
L1I-total_access : 19716085
L1I-total_hit : 15864806
L1I-total_miss : 3851279
L1I-load_access : 9482204
L1I-load_hit : 8454226
L1I-load_miss : 1027978
L1I-rfo_access : 0
L1I-rfo_hit : 0
L1I-rfo_miss : 0
L1I-prefetch_access : 10233881
L1I-prefetch_hit : 7410580
L1I-prefetch_miss : 2823301
L1I-writeback_access : 0
L1I-writeback_hit : 0
L1I-writeback_miss : 0
L1I-prefetch_requested : 11532788
L1I-prefetch_issued : 11520509
L1I-prefetch_useful : 1949226
L1I-prefetch_useless : 874080
L1I-Avg_miss_latency : 15.6383
L1I-Morteza_fill_l2_prefetches : 0

L2C TOTAL     ACCESS:    8381621  HIT:    7747162  MISS:     634459
L2C LOAD      ACCESS:    1590898  HIT:    1395841  MISS:     195057
L2C RFO       ACCESS:     281654  HIT:     228476  MISS:      53178
L2C PREFETCH  ACCESS:    5904014  HIT:    5519362  MISS:     384652
L2C WRITEBACK ACCESS:     605055  HIT:     603483  MISS:       1572
L2C PREFETCH  REQUESTED:    7382618  ISSUED:    7354486  USEFUL:      15209  USELESS:     368897
L2C AVERAGE MISS LATENCY: 41.7914 cycles
L2C

SHEET
L2C-total_access : 8381621
L2C-total_hit : 7747162
L2C-total_miss : 634459
L2C-load_access : 1590898
L2C-load_hit : 1395841
L2C-load_miss : 195057
L2C-rfo_access : 281654
L2C-rfo_hit : 228476
L2C-rfo_miss : 53178
L2C-prefetch_access : 5904014
L2C-prefetch_hit : 5519362
L2C-prefetch_miss : 384652
L2C-writeback_access : 605055
L2C-writeback_hit : 603483
L2C-writeback_miss : 1572
L2C-prefetch_requested : 7382618
L2C-prefetch_issued : 7354486
L2C-prefetch_useful : 15209
L2C-prefetch_useless : 368897
L2C-Avg_miss_latency : 41.7914
L2C-Morteza_fill_l2_prefetches : 1931788

LLC TOTAL     ACCESS:    2822198  HIT:    2753082  MISS:      69116
LLC LOAD      ACCESS:     194789  HIT:     178850  MISS:      15939
LLC RFO       ACCESS:      53177  HIT:      51195  MISS:       1982
LLC PREFETCH  ACCESS:    2480634  HIT:    2429795  MISS:      50839
LLC WRITEBACK ACCESS:      93598  HIT:      93242  MISS:        356
LLC PREFETCH  REQUESTED:          0  ISSUED:          0  USEFUL:       2361  USELESS:      47681
LLC AVERAGE MISS LATENCY: 156.97 cycles
LLC

SHEET
LLC-total_access : 2822198
LLC-total_hit : 2753082
LLC-total_miss : 69116
LLC-load_access : 194789
LLC-load_hit : 178850
LLC-load_miss : 15939
LLC-rfo_access : 53177
LLC-rfo_hit : 51195
LLC-rfo_miss : 1982
LLC-prefetch_access : 2480634
LLC-prefetch_hit : 2429795
LLC-prefetch_miss : 50839
LLC-writeback_access : 93598
LLC-writeback_hit : 93242
LLC-writeback_miss : 356
LLC-prefetch_requested : 0
LLC-prefetch_issued : 0
LLC-prefetch_useful : 2361
LLC-prefetch_useless : 47681
LLC-Avg_miss_latency : 156.97
LLC-Morteza_fill_l2_prefetches : 2081761

Major fault: 0 Minor fault: 6037



Printing Logs
statHeadFound: 2072864
statHeadMissing: 2251412
statStreamBufferHit: 10116150
statPrefetchEntryFound: 8474329
statCompactorMatch: 11115639
statStreamTrackerLookup: 14440426
statRecord: 3324787
statGetPointer: 4324276
statEnqueuePrefetch: 23046627
statPrefetchQueueIsFull: 483
StreamBufferHitRate: 0.700544
Regions' size: 2006
next_region_correct: 2289306
next_region_wrong: 1033467
next_region_correct_prediction: 0.688975
statStreamBufferLookups: 144404260
statL1iLookups: 184373016
statCompactorLookups: 231046816
morteza: start

SHEET
mana_table_access_counter : 11799591
hobp_table_access_counter : 39071101
sab_access_counter : 18590479
srq_access_counter : 16741878

morteza: end
CPU 0 L1D next line prefetcher final stats

DRAM Statistics
 CHANNEL 0
 RQ ROW_BUFFER_HIT:      19343  ROW_BUFFER_MISS:      49416
 DBUS_CONGESTED:      28711
 WQ ROW_BUFFER_HIT:        337  ROW_BUFFER_MISS:       3265  FULL:          0

 AVG_CONGESTED_CYCLE: 5

CPU 0 Branch Prediction Accuracy: 99.7093% MPKI: 0.54708 Average ROB Occupancy at Mispredict: 130.683

Branch types
NOT_BRANCH: 40590938 81.1819%
BRANCH_DIRECT_JUMP: 523491 1.04698%
BRANCH_INDIRECT: 166997 0.333994%
BRANCH_CONDITIONAL: 6365189 12.7304%
BRANCH_DIRECT_CALL: 989494 1.97899%
BRANCH_INDIRECT_CALL: 187203 0.374406%
BRANCH_RETURN: 1176698 2.3534%
BRANCH_OTHER: 0 0%

