Initialize SIGNATURE TABLE
ST_SET: 1
ST_WAY: 256
ST_TAG_BIT: 16
ST_TAG_MASK: ffff

Initialize PATTERN TABLE
PT_SET: 512
PT_WAY: 4
SIG_DELTA_BIT: 7
C_SIG_BIT: 4
C_DELTA_BIT: 4

Initialize PREFETCH FILTER
FILTER_SET: 1024
MANA initialize 
tds: 2 tdm: 2
size MANA SINGLE: 15.5 KB
size MANA NULTIPLE: 0 KB
size HOBPT: 0.703125 KB
size SRQ: 0.0644531 KB
size SABs: 0.0402832 KB
size prefetch queue: 0.453125 KB
total: 16.761 KB

*** ChampSim Multicore Out-of-Order Simulator ***

Warmup Instructions: 50000000
Simulation Instructions: 50000000
Number of CPUs: 1
LLC sets: 2048
LLC ways: 16
Off-chip DRAM Size: 4096 MB Channels: 1 Width: 64-bit Data Rate: 3200 MT/s

CPU 0 runs /home/mbaradaran/ChampSim/dpc3_traces/server_032.champsimtrace.xz
CPU 0 L1D next line prefetcher
Heartbeat CPU 0 instructions: 10000002 cycles: 3533690 heartbeat IPC: 2.8299 cumulative IPC: 2.8299 (Simulation time: 0 hr 1 min 28 sec) 
Heartbeat CPU 0 instructions: 20000003 cycles: 7068861 heartbeat IPC: 2.82872 cumulative IPC: 2.82931 (Simulation time: 0 hr 2 min 49 sec) 
Heartbeat CPU 0 instructions: 30000000 cycles: 10603705 heartbeat IPC: 2.82898 cumulative IPC: 2.8292 (Simulation time: 0 hr 4 min 16 sec) 
Heartbeat CPU 0 instructions: 40000003 cycles: 14140129 heartbeat IPC: 2.82772 cumulative IPC: 2.82883 (Simulation time: 0 hr 5 min 48 sec) 
Heartbeat CPU 0 instructions: 50000000 cycles: 17674827 heartbeat IPC: 2.8291 cumulative IPC: 2.82888 (Simulation time: 0 hr 7 min 10 sec) 

Warmup complete CPU 0 instructions: 50000004 cycles: 17674828 (Simulation time: 0 hr 7 min 10 sec) 

Heartbeat CPU 0 instructions: 60000002 cycles: 24876981 heartbeat IPC: 1.38847 cumulative IPC: 1.38847 (Simulation time: 0 hr 8 min 29 sec) 
Heartbeat CPU 0 instructions: 70000000 cycles: 32080966 heartbeat IPC: 1.38812 cumulative IPC: 1.3883 (Simulation time: 0 hr 9 min 50 sec) 
*** Reached end of trace for Core: 0 Repeating trace: /home/mbaradaran/ChampSim/dpc3_traces/server_032.champsimtrace.xz
Heartbeat CPU 0 instructions: 80000003 cycles: 39280023 heartbeat IPC: 1.38907 cumulative IPC: 1.38855 (Simulation time: 0 hr 11 min 14 sec) 
Heartbeat CPU 0 instructions: 90000002 cycles: 46458450 heartbeat IPC: 1.39306 cumulative IPC: 1.38968 (Simulation time: 0 hr 12 min 35 sec) 
Heartbeat CPU 0 instructions: 100000001 cycles: 53646711 heartbeat IPC: 1.39116 cumulative IPC: 1.38997 (Simulation time: 0 hr 14 min 0 sec) 
Finished CPU 0 instructions: 50000002 cycles: 35971885 cumulative IPC: 1.38997 (Simulation time: 0 hr 14 min 0 sec) 

ChampSim completed all CPUs

Region of Interest Statistics

CPU 0 cumulative IPC: 1.38997 instructions: 50000002 cycles: 35971885

SHEET
IPC : 1.38997

L1D TOTAL     ACCESS:   20398922  HIT:   18569627  MISS:    1829295
L1D LOAD      ACCESS:    7047364  HIT:    6254544  MISS:     792820
L1D RFO       ACCESS:    6573983  HIT:    6279893  MISS:     294090
L1D PREFETCH  ACCESS:    6777575  HIT:    6035190  MISS:     742385
L1D WRITEBACK ACCESS:          0  HIT:          0  MISS:          0
L1D PREFETCH  REQUESTED:    7098220  ISSUED:    6974517  USEFUL:     172086  USELESS:     570297
L1D AVERAGE MISS LATENCY: 19.0174 cycles
L1D

SHEET
L1D-total_access : 20398922
L1D-total_hit : 18569627
L1D-total_miss : 1829295
L1D-load_access : 7047364
L1D-load_hit : 6254544
L1D-load_miss : 792820
L1D-rfo_access : 6573983
L1D-rfo_hit : 6279893
L1D-rfo_miss : 294090
L1D-prefetch_access : 6777575
L1D-prefetch_hit : 6035190
L1D-prefetch_miss : 742385
L1D-writeback_access : 0
L1D-writeback_hit : 0
L1D-writeback_miss : 0
L1D-prefetch_requested : 7098220
L1D-prefetch_issued : 6974517
L1D-prefetch_useful : 172086
L1D-prefetch_useless : 570297
L1D-Avg_miss_latency : 19.0174
L1D-Morteza_fill_l2_prefetches : 0

L1I TOTAL     ACCESS:   20240127  HIT:   16123793  MISS:    4116334
L1I LOAD      ACCESS:    9365334  HIT:    8246802  MISS:    1118532
L1I RFO       ACCESS:          0  HIT:          0  MISS:          0
L1I PREFETCH  ACCESS:   10874793  HIT:    7876991  MISS:    2997802
L1I WRITEBACK ACCESS:          0  HIT:          0  MISS:          0
L1I PREFETCH  REQUESTED:   12233264  ISSUED:   12221873  USEFUL:    2135568  USELESS:     862231
L1I AVERAGE MISS LATENCY: 15.3478 cycles
L1I

SHEET
L1I-total_access : 20240127
L1I-total_hit : 16123793
L1I-total_miss : 4116334
L1I-load_access : 9365334
L1I-load_hit : 8246802
L1I-load_miss : 1118532
L1I-rfo_access : 0
L1I-rfo_hit : 0
L1I-rfo_miss : 0
L1I-prefetch_access : 10874793
L1I-prefetch_hit : 7876991
L1I-prefetch_miss : 2997802
L1I-writeback_access : 0
L1I-writeback_hit : 0
L1I-writeback_miss : 0
L1I-prefetch_requested : 12233264
L1I-prefetch_issued : 12221873
L1I-prefetch_useful : 2135568
L1I-prefetch_useless : 862231
L1I-Avg_miss_latency : 15.3478
L1I-Morteza_fill_l2_prefetches : 0

L2C TOTAL     ACCESS:    8438039  HIT:    7894541  MISS:     543498
L2C LOAD      ACCESS:    1532012  HIT:    1396042  MISS:     135970
L2C RFO       ACCESS:     292685  HIT:     246733  MISS:      45952
L2C PREFETCH  ACCESS:    5977138  HIT:    5627186  MISS:     349952
L2C WRITEBACK ACCESS:     636204  HIT:     624580  MISS:      11624
L2C PREFETCH  REQUESTED:    7647897  ISSUED:    7604041  USEFUL:      12128  USELESS:     337669
L2C AVERAGE MISS LATENCY: 32.5042 cycles
L2C

SHEET
L2C-total_access : 8438039
L2C-total_hit : 7894541
L2C-total_miss : 543498
L2C-load_access : 1532012
L2C-load_hit : 1396042
L2C-load_miss : 135970
L2C-rfo_access : 292685
L2C-rfo_hit : 246733
L2C-rfo_miss : 45952
L2C-prefetch_access : 5977138
L2C-prefetch_hit : 5627186
L2C-prefetch_miss : 349952
L2C-writeback_access : 636204
L2C-writeback_hit : 624580
L2C-writeback_miss : 11624
L2C-prefetch_requested : 7647897
L2C-prefetch_issued : 7604041
L2C-prefetch_useful : 12128
L2C-prefetch_useless : 337669
L2C-Avg_miss_latency : 32.5042
L2C-Morteza_fill_l2_prefetches : 1895070

LLC TOTAL     ACCESS:    3212776  HIT:    3205790  MISS:       6986
LLC LOAD      ACCESS:     135648  HIT:     135190  MISS:        458
LLC RFO       ACCESS:      45952  HIT:      45952  MISS:          0
LLC PREFETCH  ACCESS:    2941513  HIT:    2935003  MISS:       6510
LLC WRITEBACK ACCESS:      89663  HIT:      89645  MISS:         18
LLC PREFETCH  REQUESTED:          0  ISSUED:          0  USEFUL:        426  USELESS:       2221
LLC AVERAGE MISS LATENCY: 151.772 cycles
LLC

SHEET
LLC-total_access : 3212776
LLC-total_hit : 3205790
LLC-total_miss : 6986
LLC-load_access : 135648
LLC-load_hit : 135190
LLC-load_miss : 458
LLC-rfo_access : 45952
LLC-rfo_hit : 45952
LLC-rfo_miss : 0
LLC-prefetch_access : 2941513
LLC-prefetch_hit : 2935003
LLC-prefetch_miss : 6510
LLC-writeback_access : 89663
LLC-writeback_hit : 89645
LLC-writeback_miss : 18
LLC-prefetch_requested : 0
LLC-prefetch_issued : 0
LLC-prefetch_useful : 426
LLC-prefetch_useless : 2221
LLC-Avg_miss_latency : 151.772
LLC-Morteza_fill_l2_prefetches : 2596801

Major fault: 0 Minor fault: 1178



Printing Logs
statHeadFound: 2187726
statHeadMissing: 2339187
statStreamBufferHit: 9975346
statPrefetchEntryFound: 9021785
statCompactorMatch: 10854691
statStreamTrackerLookup: 14502259
statRecord: 3647568
statGetPointer: 4526913
statEnqueuePrefetch: 24412438
statPrefetchQueueIsFull: 853
StreamBufferHitRate: 0.687848
Regions' size: 1507
next_region_correct: 2535554
next_region_wrong: 1110499
next_region_correct_prediction: 0.695424
statStreamBufferLookups: 145022590
statL1iLookups: 195299504
statCompactorLookups: 232036144
morteza: start

SHEET
mana_table_access_counter : 12670198
hobp_table_access_counter : 41720595
sab_access_counter : 18997131
srq_access_counter : 17095789

morteza: end
CPU 0 L1D next line prefetcher final stats

DRAM Statistics
 CHANNEL 0
 RQ ROW_BUFFER_HIT:       1743  ROW_BUFFER_MISS:       5225
 DBUS_CONGESTED:       1025
 WQ ROW_BUFFER_HIT:          1  ROW_BUFFER_MISS:         19  FULL:          0

 AVG_CONGESTED_CYCLE: 5

CPU 0 Branch Prediction Accuracy: 99.8762% MPKI: 0.2296 Average ROB Occupancy at Mispredict: 147.626

Branch types
NOT_BRANCH: 40725977 81.452%
BRANCH_DIRECT_JUMP: 508371 1.01674%
BRANCH_INDIRECT: 180051 0.360102%
BRANCH_CONDITIONAL: 5999633 11.9993%
BRANCH_DIRECT_CALL: 1086732 2.17346%
BRANCH_INDIRECT_CALL: 206109 0.412218%
BRANCH_RETURN: 1292830 2.58566%
BRANCH_OTHER: 0 0%

