Initialize SIGNATURE TABLE
ST_SET: 1
ST_WAY: 256
ST_TAG_BIT: 16
ST_TAG_MASK: ffff

Initialize PATTERN TABLE
PT_SET: 512
PT_WAY: 4
SIG_DELTA_BIT: 7
C_SIG_BIT: 4
C_DELTA_BIT: 4

Initialize PREFETCH FILTER
FILTER_SET: 1024
MANA initialize 
tds: 2 tdm: 2
size MANA SINGLE: 15.5 KB
size MANA NULTIPLE: 0 KB
size HOBPT: 0.703125 KB
size SRQ: 0.0644531 KB
size SABs: 0.0402832 KB
size prefetch queue: 0.453125 KB
total: 16.761 KB

*** ChampSim Multicore Out-of-Order Simulator ***

Warmup Instructions: 50000000
Simulation Instructions: 50000000
Number of CPUs: 1
LLC sets: 2048
LLC ways: 16
Off-chip DRAM Size: 4096 MB Channels: 1 Width: 64-bit Data Rate: 3200 MT/s

CPU 0 runs /home/mbaradaran/ChampSim/dpc3_traces/server_017.champsimtrace.xz
CPU 0 L1D next line prefetcher
Heartbeat CPU 0 instructions: 10000001 cycles: 3624370 heartbeat IPC: 2.7591 cumulative IPC: 2.7591 (Simulation time: 0 hr 1 min 32 sec) 
Heartbeat CPU 0 instructions: 20000000 cycles: 7246680 heartbeat IPC: 2.76067 cumulative IPC: 2.75988 (Simulation time: 0 hr 3 min 7 sec) 
Heartbeat CPU 0 instructions: 30000002 cycles: 10875582 heartbeat IPC: 2.75566 cumulative IPC: 2.75847 (Simulation time: 0 hr 4 min 39 sec) 
Heartbeat CPU 0 instructions: 40000000 cycles: 14499475 heartbeat IPC: 2.75946 cumulative IPC: 2.75872 (Simulation time: 0 hr 6 min 11 sec) 
Heartbeat CPU 0 instructions: 50000001 cycles: 18134367 heartbeat IPC: 2.75111 cumulative IPC: 2.7572 (Simulation time: 0 hr 7 min 44 sec) 

Warmup complete CPU 0 instructions: 50000001 cycles: 18134367 (Simulation time: 0 hr 7 min 44 sec) 

Heartbeat CPU 0 instructions: 60000002 cycles: 35902895 heartbeat IPC: 0.562793 cumulative IPC: 0.562793 (Simulation time: 0 hr 9 min 50 sec) 
Heartbeat CPU 0 instructions: 70000002 cycles: 53741653 heartbeat IPC: 0.560577 cumulative IPC: 0.561683 (Simulation time: 0 hr 11 min 54 sec) 
Heartbeat CPU 0 instructions: 80000000 cycles: 71444848 heartbeat IPC: 0.56487 cumulative IPC: 0.562741 (Simulation time: 0 hr 14 min 0 sec) 
Heartbeat CPU 0 instructions: 90000002 cycles: 94971130 heartbeat IPC: 0.425057 cumulative IPC: 0.520584 (Simulation time: 0 hr 16 min 12 sec) 
Heartbeat CPU 0 instructions: 100000003 cycles: 115244015 heartbeat IPC: 0.49327 cumulative IPC: 0.514882 (Simulation time: 0 hr 18 min 17 sec) 
Finished CPU 0 instructions: 50000002 cycles: 97109648 cumulative IPC: 0.514882 (Simulation time: 0 hr 18 min 17 sec) 

ChampSim completed all CPUs

Region of Interest Statistics

CPU 0 cumulative IPC: 0.514882 instructions: 50000002 cycles: 97109648

SHEET
IPC : 0.514882

L1D TOTAL     ACCESS:   18438395  HIT:   16272831  MISS:    2165564
L1D LOAD      ACCESS:    7053651  HIT:    6305329  MISS:     748322
L1D RFO       ACCESS:    5525484  HIT:    4666370  MISS:     859114
L1D PREFETCH  ACCESS:    5859260  HIT:    5301132  MISS:     558128
L1D WRITEBACK ACCESS:          0  HIT:          0  MISS:          0
L1D PREFETCH  REQUESTED:    7091138  ISSUED:    6900721  USEFUL:     195761  USELESS:     362428
L1D AVERAGE MISS LATENCY: 173.575 cycles
L1D

SHEET
L1D-total_access : 18438395
L1D-total_hit : 16272831
L1D-total_miss : 2165564
L1D-load_access : 7053651
L1D-load_hit : 6305329
L1D-load_miss : 748322
L1D-rfo_access : 5525484
L1D-rfo_hit : 4666370
L1D-rfo_miss : 859114
L1D-prefetch_access : 5859260
L1D-prefetch_hit : 5301132
L1D-prefetch_miss : 558128
L1D-writeback_access : 0
L1D-writeback_hit : 0
L1D-writeback_miss : 0
L1D-prefetch_requested : 7091138
L1D-prefetch_issued : 6900721
L1D-prefetch_useful : 195761
L1D-prefetch_useless : 362428
L1D-Avg_miss_latency : 173.575
L1D-Morteza_fill_l2_prefetches : 0

L1I TOTAL     ACCESS:   17584792  HIT:   15305438  MISS:    2279354
L1I LOAD      ACCESS:    9795708  HIT:    9409820  MISS:     385888
L1I RFO       ACCESS:          0  HIT:          0  MISS:          0
L1I PREFETCH  ACCESS:    7789084  HIT:    5895618  MISS:    1893466
L1I WRITEBACK ACCESS:          0  HIT:          0  MISS:          0
L1I PREFETCH  REQUESTED:    8484972  ISSUED:    8480001  USEFUL:    1748115  USELESS:     145358
L1I AVERAGE MISS LATENCY: 16.742 cycles
L1I

SHEET
L1I-total_access : 17584792
L1I-total_hit : 15305438
L1I-total_miss : 2279354
L1I-load_access : 9795708
L1I-load_hit : 9409820
L1I-load_miss : 385888
L1I-rfo_access : 0
L1I-rfo_hit : 0
L1I-rfo_miss : 0
L1I-prefetch_access : 7789084
L1I-prefetch_hit : 5895618
L1I-prefetch_miss : 1893466
L1I-writeback_access : 0
L1I-writeback_hit : 0
L1I-writeback_miss : 0
L1I-prefetch_requested : 8484972
L1I-prefetch_issued : 8480001
L1I-prefetch_useful : 1748115
L1I-prefetch_useless : 145358
L1I-Avg_miss_latency : 16.742
L1I-Morteza_fill_l2_prefetches : 0

L2C TOTAL     ACCESS:    6501930  HIT:    4657357  MISS:    1844573
L2C LOAD      ACCESS:     720355  HIT:     382556  MISS:     337799
L2C RFO       ACCESS:     858706  HIT:      17319  MISS:     841387
L2C PREFETCH  ACCESS:    3799988  HIT:    3136446  MISS:     663542
L2C WRITEBACK ACCESS:    1122881  HIT:    1121036  MISS:       1845
L2C PREFETCH  REQUESTED:    3890176  ISSUED:    3886890  USEFUL:      26398  USELESS:     637585
L2C AVERAGE MISS LATENCY: 208.021 cycles
L2C

SHEET
L2C-total_access : 6501930
L2C-total_hit : 4657357
L2C-total_miss : 1844573
L2C-load_access : 720355
L2C-load_hit : 382556
L2C-load_miss : 337799
L2C-rfo_access : 858706
L2C-rfo_hit : 17319
L2C-rfo_miss : 841387
L2C-prefetch_access : 3799988
L2C-prefetch_hit : 3136446
L2C-prefetch_miss : 663542
L2C-writeback_access : 1122881
L2C-writeback_hit : 1121036
L2C-writeback_miss : 1845
L2C-prefetch_requested : 3890176
L2C-prefetch_issued : 3886890
L2C-prefetch_useful : 26398
L2C-prefetch_useless : 637585
L2C-Avg_miss_latency : 208.021
L2C-Morteza_fill_l2_prefetches : 937871

LLC TOTAL     ACCESS:    4085882  HIT:    2521852  MISS:    1564030
LLC LOAD      ACCESS:     337667  HIT:     179001  MISS:     158666
LLC RFO       ACCESS:     841386  HIT:     123087  MISS:     718299
LLC PREFETCH  ACCESS:    1845434  HIT:    1160689  MISS:     684745
LLC WRITEBACK ACCESS:    1061395  HIT:    1059075  MISS:       2320
LLC PREFETCH  REQUESTED:          0  ISSUED:          0  USEFUL:      49607  USELESS:     634564
LLC AVERAGE MISS LATENCY: 259.254 cycles
LLC

SHEET
LLC-total_access : 4085882
LLC-total_hit : 2521852
LLC-total_miss : 1564030
LLC-load_access : 337667
LLC-load_hit : 179001
LLC-load_miss : 158666
LLC-rfo_access : 841386
LLC-rfo_hit : 123087
LLC-rfo_miss : 718299
LLC-prefetch_access : 1845434
LLC-prefetch_hit : 1160689
LLC-prefetch_miss : 684745
LLC-writeback_access : 1061395
LLC-writeback_hit : 1059075
LLC-writeback_miss : 2320
LLC-prefetch_requested : 0
LLC-prefetch_issued : 0
LLC-prefetch_useful : 49607
LLC-prefetch_useless : 634564
LLC-Avg_miss_latency : 259.254
LLC-Morteza_fill_l2_prefetches : 862531

Major fault: 0 Minor fault: 24694



Printing Logs
statHeadFound: 1234312
statHeadMissing: 1363763
statStreamBufferHit: 10626840
statPrefetchEntryFound: 5886030
statCompactorMatch: 10659710
statStreamTrackerLookup: 13224915
statRecord: 2565205
statGetPointer: 2598075
statEnqueuePrefetch: 17668433
statPrefetchQueueIsFull: 0
StreamBufferHitRate: 0.803547
Regions' size: 1283
next_region_correct: 2069990
next_region_wrong: 493924
next_region_correct_prediction: 0.807355
statStreamBufferLookups: 132249150
statL1iLookups: 141347464
statCompactorLookups: 211598640
morteza: start

SHEET
mana_table_access_counter : 8451227
hobp_table_access_counter : 26539150
sab_access_counter : 16512870
srq_access_counter : 15003341

morteza: end
CPU 0 L1D next line prefetcher final stats

DRAM Statistics
 CHANNEL 0
 RQ ROW_BUFFER_HIT:     377397  ROW_BUFFER_MISS:    1184144
 DBUS_CONGESTED:    1494321
 WQ ROW_BUFFER_HIT:     259112  ROW_BUFFER_MISS:     617781  FULL:          0

 AVG_CONGESTED_CYCLE: 6

CPU 0 Branch Prediction Accuracy: 99.2833% MPKI: 1.20568 Average ROB Occupancy at Mispredict: 179.866

Branch types
NOT_BRANCH: 41588350 83.1767%
BRANCH_DIRECT_JUMP: 464501 0.929002%
BRANCH_INDIRECT: 45704 0.091408%
BRANCH_CONDITIONAL: 6147408 12.2948%
BRANCH_DIRECT_CALL: 675450 1.3509%
BRANCH_INDIRECT_CALL: 201532 0.403064%
BRANCH_RETURN: 876985 1.75397%
BRANCH_OTHER: 0 0%

