Initialize SIGNATURE TABLE
ST_SET: 1
ST_WAY: 256
ST_TAG_BIT: 16
ST_TAG_MASK: ffff

Initialize PATTERN TABLE
PT_SET: 512
PT_WAY: 4
SIG_DELTA_BIT: 7
C_SIG_BIT: 4
C_DELTA_BIT: 4

Initialize PREFETCH FILTER
FILTER_SET: 1024
MANA initialize 
tds: 2 tdm: 2
size MANA SINGLE: 15.5 KB
size MANA NULTIPLE: 0 KB
size HOBPT: 0.703125 KB
size SRQ: 0.0644531 KB
size SABs: 0.0402832 KB
size prefetch queue: 0.453125 KB
total: 16.761 KB

*** ChampSim Multicore Out-of-Order Simulator ***

Warmup Instructions: 50000000
Simulation Instructions: 50000000
Number of CPUs: 1
LLC sets: 2048
LLC ways: 16
Off-chip DRAM Size: 4096 MB Channels: 1 Width: 64-bit Data Rate: 3200 MT/s

CPU 0 runs /home/mbaradaran/ChampSim/dpc3_traces/server_024.champsimtrace.xz
CPU 0 L1D next line prefetcher
Heartbeat CPU 0 instructions: 10000000 cycles: 3502797 heartbeat IPC: 2.85486 cumulative IPC: 2.85486 (Simulation time: 0 hr 1 min 29 sec) 
Heartbeat CPU 0 instructions: 20000002 cycles: 6998292 heartbeat IPC: 2.86083 cumulative IPC: 2.85784 (Simulation time: 0 hr 2 min 59 sec) 
Heartbeat CPU 0 instructions: 30000000 cycles: 10504225 heartbeat IPC: 2.85231 cumulative IPC: 2.85599 (Simulation time: 0 hr 4 min 20 sec) 
Heartbeat CPU 0 instructions: 40000000 cycles: 14007542 heartbeat IPC: 2.85444 cumulative IPC: 2.8556 (Simulation time: 0 hr 5 min 50 sec) 
Heartbeat CPU 0 instructions: 50000001 cycles: 17500496 heartbeat IPC: 2.86291 cumulative IPC: 2.85706 (Simulation time: 0 hr 7 min 13 sec) 

Warmup complete CPU 0 instructions: 50000001 cycles: 17500496 (Simulation time: 0 hr 7 min 13 sec) 

Heartbeat CPU 0 instructions: 60000003 cycles: 24814713 heartbeat IPC: 1.3672 cumulative IPC: 1.3672 (Simulation time: 0 hr 8 min 32 sec) 
Heartbeat CPU 0 instructions: 70000000 cycles: 32160271 heartbeat IPC: 1.36137 cumulative IPC: 1.36428 (Simulation time: 0 hr 9 min 47 sec) 
*** Reached end of trace for Core: 0 Repeating trace: /home/mbaradaran/ChampSim/dpc3_traces/server_024.champsimtrace.xz
Heartbeat CPU 0 instructions: 80000001 cycles: 39459193 heartbeat IPC: 1.37007 cumulative IPC: 1.3662 (Simulation time: 0 hr 11 min 5 sec) 
Heartbeat CPU 0 instructions: 90000003 cycles: 46814228 heartbeat IPC: 1.35961 cumulative IPC: 1.36455 (Simulation time: 0 hr 12 min 23 sec) 
Heartbeat CPU 0 instructions: 100000002 cycles: 54135236 heartbeat IPC: 1.36593 cumulative IPC: 1.36482 (Simulation time: 0 hr 13 min 43 sec) 
Finished CPU 0 instructions: 50000001 cycles: 36634740 cumulative IPC: 1.36482 (Simulation time: 0 hr 13 min 43 sec) 

ChampSim completed all CPUs

Region of Interest Statistics

CPU 0 cumulative IPC: 1.36482 instructions: 50000001 cycles: 36634740

SHEET
IPC : 1.36482

L1D TOTAL     ACCESS:   20269250  HIT:   18751241  MISS:    1518009
L1D LOAD      ACCESS:    7215572  HIT:    6535771  MISS:     679801
L1D RFO       ACCESS:    6164903  HIT:    5890959  MISS:     273944
L1D PREFETCH  ACCESS:    6888775  HIT:    6324511  MISS:     564264
L1D WRITEBACK ACCESS:          0  HIT:          0  MISS:          0
L1D PREFETCH  REQUESTED:    7269538  ISSUED:    7153223  USEFUL:     136759  USELESS:     427509
L1D AVERAGE MISS LATENCY: 24.7952 cycles
L1D

SHEET
L1D-total_access : 20269250
L1D-total_hit : 18751241
L1D-total_miss : 1518009
L1D-load_access : 7215572
L1D-load_hit : 6535771
L1D-load_miss : 679801
L1D-rfo_access : 6164903
L1D-rfo_hit : 5890959
L1D-rfo_miss : 273944
L1D-prefetch_access : 6888775
L1D-prefetch_hit : 6324511
L1D-prefetch_miss : 564264
L1D-writeback_access : 0
L1D-writeback_hit : 0
L1D-writeback_miss : 0
L1D-prefetch_requested : 7269538
L1D-prefetch_issued : 7153223
L1D-prefetch_useful : 136759
L1D-prefetch_useless : 427509
L1D-Avg_miss_latency : 24.7952
L1D-Morteza_fill_l2_prefetches : 0

L1I TOTAL     ACCESS:   18936919  HIT:   15462659  MISS:    3474260
L1I LOAD      ACCESS:    9104743  HIT:    8195088  MISS:     909655
L1I RFO       ACCESS:          0  HIT:          0  MISS:          0
L1I PREFETCH  ACCESS:    9832176  HIT:    7267571  MISS:    2564605
L1I WRITEBACK ACCESS:          0  HIT:          0  MISS:          0
L1I PREFETCH  REQUESTED:   11083635  ISSUED:   11060573  USEFUL:    1674314  USELESS:     890285
L1I AVERAGE MISS LATENCY: 16.1883 cycles
L1I

SHEET
L1I-total_access : 18936919
L1I-total_hit : 15462659
L1I-total_miss : 3474260
L1I-load_access : 9104743
L1I-load_hit : 8195088
L1I-load_miss : 909655
L1I-rfo_access : 0
L1I-rfo_hit : 0
L1I-rfo_miss : 0
L1I-prefetch_access : 9832176
L1I-prefetch_hit : 7267571
L1I-prefetch_miss : 2564605
L1I-writeback_access : 0
L1I-writeback_hit : 0
L1I-writeback_miss : 0
L1I-prefetch_requested : 11083635
L1I-prefetch_issued : 11060573
L1I-prefetch_useful : 1674314
L1I-prefetch_useless : 890285
L1I-Avg_miss_latency : 16.1883
L1I-Morteza_fill_l2_prefetches : 0

L2C TOTAL     ACCESS:    6844545  HIT:    6197604  MISS:     646941
L2C LOAD      ACCESS:    1259042  HIT:    1073299  MISS:     185743
L2C RFO       ACCESS:     272299  HIT:     187256  MISS:      85043
L2C PREFETCH  ACCESS:    4793011  HIT:    4420547  MISS:     372464
L2C WRITEBACK ACCESS:     520193  HIT:     516502  MISS:       3691
L2C PREFETCH  REQUESTED:    5602948  ISSUED:    5596789  USEFUL:      29189  USELESS:     342246
L2C AVERAGE MISS LATENCY: 44.4382 cycles
L2C

SHEET
L2C-total_access : 6844545
L2C-total_hit : 6197604
L2C-total_miss : 646941
L2C-load_access : 1259042
L2C-load_hit : 1073299
L2C-load_miss : 185743
L2C-rfo_access : 272299
L2C-rfo_hit : 187256
L2C-rfo_miss : 85043
L2C-prefetch_access : 4793011
L2C-prefetch_hit : 4420547
L2C-prefetch_miss : 372464
L2C-writeback_access : 520193
L2C-writeback_hit : 516502
L2C-writeback_miss : 3691
L2C-prefetch_requested : 5602948
L2C-prefetch_issued : 5596789
L2C-prefetch_useful : 29189
L2C-prefetch_useless : 342246
L2C-Avg_miss_latency : 44.4382
L2C-Morteza_fill_l2_prefetches : 1370703

LLC TOTAL     ACCESS:    2240560  HIT:    2189578  MISS:      50982
LLC LOAD      ACCESS:     185466  HIT:     179790  MISS:       5676
LLC RFO       ACCESS:      85039  HIT:      63033  MISS:      22006
LLC PREFETCH  ACCESS:    1833398  HIT:    1810386  MISS:      23012
LLC WRITEBACK ACCESS:     136657  HIT:     136369  MISS:        288
LLC PREFETCH  REQUESTED:          0  ISSUED:          0  USEFUL:       2318  USELESS:      20751
LLC AVERAGE MISS LATENCY: 197.141 cycles
LLC

SHEET
LLC-total_access : 2240560
LLC-total_hit : 2189578
LLC-total_miss : 50982
LLC-load_access : 185466
LLC-load_hit : 179790
LLC-load_miss : 5676
LLC-rfo_access : 85039
LLC-rfo_hit : 63033
LLC-rfo_miss : 22006
LLC-prefetch_access : 1833398
LLC-prefetch_hit : 1810386
LLC-prefetch_miss : 23012
LLC-writeback_access : 136657
LLC-writeback_hit : 136369
LLC-writeback_miss : 288
LLC-prefetch_requested : 0
LLC-prefetch_issued : 0
LLC-prefetch_useful : 2318
LLC-prefetch_useless : 20751
LLC-Avg_miss_latency : 197.141
LLC-Morteza_fill_l2_prefetches : 1465321

Major fault: 0 Minor fault: 2362



Printing Logs
statHeadFound: 2005706
statHeadMissing: 2942344
statStreamBufferHit: 9156867
statPrefetchEntryFound: 8114879
statCompactorMatch: 11103413
statStreamTrackerLookup: 14104917
statRecord: 3001504
statGetPointer: 4948050
statEnqueuePrefetch: 22079357
statPrefetchQueueIsFull: 177
StreamBufferHitRate: 0.649197
Regions' size: 2449
next_region_correct: 1990639
next_region_wrong: 1008408
next_region_correct_prediction: 0.663757
statStreamBufferLookups: 141049170
statL1iLookups: 176634856
statCompactorLookups: 225678672
morteza: start

SHEET
mana_table_access_counter : 11116552
hobp_table_access_counter : 39913312
sab_access_counter : 17271746
srq_access_counter : 16016987

morteza: end
CPU 0 L1D next line prefetcher final stats

DRAM Statistics
 CHANNEL 0
 RQ ROW_BUFFER_HIT:      17609  ROW_BUFFER_MISS:      33079
 DBUS_CONGESTED:      37994
 WQ ROW_BUFFER_HIT:       2747  ROW_BUFFER_MISS:      22840  FULL:          0

 AVG_CONGESTED_CYCLE: 6

CPU 0 Branch Prediction Accuracy: 99.7477% MPKI: 0.46156 Average ROB Occupancy at Mispredict: 137.543

Branch types
NOT_BRANCH: 40853595 81.7072%
BRANCH_DIRECT_JUMP: 566814 1.13363%
BRANCH_INDIRECT: 197171 0.394342%
BRANCH_CONDITIONAL: 6308406 12.6168%
BRANCH_DIRECT_CALL: 876399 1.7528%
BRANCH_INDIRECT_CALL: 160491 0.320982%
BRANCH_RETURN: 1036885 2.07377%
BRANCH_OTHER: 0 0%

