Initialize SIGNATURE TABLE
ST_SET: 1
ST_WAY: 256
ST_TAG_BIT: 16
ST_TAG_MASK: ffff

Initialize PATTERN TABLE
PT_SET: 512
PT_WAY: 4
SIG_DELTA_BIT: 7
C_SIG_BIT: 4
C_DELTA_BIT: 4

Initialize PREFETCH FILTER
FILTER_SET: 1024
MANA initialize 
tds: 2 tdm: 2
size MANA SINGLE: 15.5 KB
size MANA NULTIPLE: 0 KB
size HOBPT: 0.703125 KB
size SRQ: 0.0644531 KB
size SABs: 0.0402832 KB
size prefetch queue: 0.453125 KB
total: 16.761 KB

*** ChampSim Multicore Out-of-Order Simulator ***

Warmup Instructions: 50000000
Simulation Instructions: 50000000
Number of CPUs: 1
LLC sets: 2048
LLC ways: 16
Off-chip DRAM Size: 4096 MB Channels: 1 Width: 64-bit Data Rate: 3200 MT/s

CPU 0 runs /home/mbaradaran/ChampSim/dpc3_traces/server_010.champsimtrace.xz
CPU 0 L1D next line prefetcher
Heartbeat CPU 0 instructions: 10000000 cycles: 3198466 heartbeat IPC: 3.1265 cumulative IPC: 3.1265 (Simulation time: 0 hr 1 min 19 sec) 
Heartbeat CPU 0 instructions: 20000002 cycles: 6393606 heartbeat IPC: 3.12975 cumulative IPC: 3.12813 (Simulation time: 0 hr 2 min 38 sec) 
Heartbeat CPU 0 instructions: 30000001 cycles: 9591401 heartbeat IPC: 3.12715 cumulative IPC: 3.1278 (Simulation time: 0 hr 3 min 51 sec) 
Heartbeat CPU 0 instructions: 40000000 cycles: 12785345 heartbeat IPC: 3.13092 cumulative IPC: 3.12858 (Simulation time: 0 hr 5 min 4 sec) 
Heartbeat CPU 0 instructions: 50000003 cycles: 15985256 heartbeat IPC: 3.12509 cumulative IPC: 3.12788 (Simulation time: 0 hr 6 min 21 sec) 

Warmup complete CPU 0 instructions: 50000003 cycles: 15985256 (Simulation time: 0 hr 6 min 21 sec) 

Heartbeat CPU 0 instructions: 60000001 cycles: 23724042 heartbeat IPC: 1.29219 cumulative IPC: 1.29219 (Simulation time: 0 hr 7 min 26 sec) 
Heartbeat CPU 0 instructions: 70000000 cycles: 31613894 heartbeat IPC: 1.26745 cumulative IPC: 1.2797 (Simulation time: 0 hr 8 min 36 sec) 
Heartbeat CPU 0 instructions: 80000003 cycles: 39620510 heartbeat IPC: 1.24897 cumulative IPC: 1.26929 (Simulation time: 0 hr 9 min 41 sec) 
Heartbeat CPU 0 instructions: 90000002 cycles: 47273909 heartbeat IPC: 1.30661 cumulative IPC: 1.27842 (Simulation time: 0 hr 10 min 51 sec) 
Heartbeat CPU 0 instructions: 100000003 cycles: 68159680 heartbeat IPC: 0.478795 cumulative IPC: 0.958324 (Simulation time: 0 hr 12 min 48 sec) 
Finished CPU 0 instructions: 50000000 cycles: 52174424 cumulative IPC: 0.958324 (Simulation time: 0 hr 12 min 48 sec) 

ChampSim completed all CPUs

Region of Interest Statistics

CPU 0 cumulative IPC: 0.958324 instructions: 50000000 cycles: 52174424

SHEET
IPC : 0.958324

L1D TOTAL     ACCESS:   20145802  HIT:   16920199  MISS:    3225603
L1D LOAD      ACCESS:    7821018  HIT:    6230720  MISS:    1590298
L1D RFO       ACCESS:    4723141  HIT:    4628557  MISS:      94584
L1D PREFETCH  ACCESS:    7601643  HIT:    6060922  MISS:    1540721
L1D WRITEBACK ACCESS:          0  HIT:          0  MISS:          0
L1D PREFETCH  REQUESTED:    7855177  ISSUED:    7756593  USEFUL:     119874  USELESS:    1420819
L1D AVERAGE MISS LATENCY: 22.4704 cycles
L1D

SHEET
L1D-total_access : 20145802
L1D-total_hit : 16920199
L1D-total_miss : 3225603
L1D-load_access : 7821018
L1D-load_hit : 6230720
L1D-load_miss : 1590298
L1D-rfo_access : 4723141
L1D-rfo_hit : 4628557
L1D-rfo_miss : 94584
L1D-prefetch_access : 7601643
L1D-prefetch_hit : 6060922
L1D-prefetch_miss : 1540721
L1D-writeback_access : 0
L1D-writeback_hit : 0
L1D-writeback_miss : 0
L1D-prefetch_requested : 7855177
L1D-prefetch_issued : 7756593
L1D-prefetch_useful : 119874
L1D-prefetch_useless : 1420819
L1D-Avg_miss_latency : 22.4704
L1D-Morteza_fill_l2_prefetches : 0

L1I TOTAL     ACCESS:   20128722  HIT:   18500737  MISS:    1627985
L1I LOAD      ACCESS:    9874340  HIT:    9480248  MISS:     394092
L1I RFO       ACCESS:          0  HIT:          0  MISS:          0
L1I PREFETCH  ACCESS:   10254382  HIT:    9020489  MISS:    1233893
L1I WRITEBACK ACCESS:          0  HIT:          0  MISS:          0
L1I PREFETCH  REQUESTED:   11250736  ISSUED:   11167614  USEFUL:     796047  USELESS:     437911
L1I AVERAGE MISS LATENCY: 28.785 cycles
L1I

SHEET
L1I-total_access : 20128722
L1I-total_hit : 18500737
L1I-total_miss : 1627985
L1I-load_access : 9874340
L1I-load_hit : 9480248
L1I-load_miss : 394092
L1I-rfo_access : 0
L1I-rfo_hit : 0
L1I-rfo_miss : 0
L1I-prefetch_access : 10254382
L1I-prefetch_hit : 9020489
L1I-prefetch_miss : 1233893
L1I-writeback_access : 0
L1I-writeback_hit : 0
L1I-writeback_miss : 0
L1I-prefetch_requested : 11250736
L1I-prefetch_issued : 11167614
L1I-prefetch_useful : 796047
L1I-prefetch_useless : 437911
L1I-Avg_miss_latency : 28.785
L1I-Morteza_fill_l2_prefetches : 0

L2C TOTAL     ACCESS:    6258123  HIT:    5135146  MISS:    1122977
L2C LOAD      ACCESS:    1847693  HIT:    1487171  MISS:     360522
L2C RFO       ACCESS:      93496  HIT:      49369  MISS:      44127
L2C PREFETCH  ACCESS:    4051558  HIT:    3334345  MISS:     717213
L2C WRITEBACK ACCESS:     265376  HIT:     264261  MISS:       1115
L2C PREFETCH  REQUESTED:    6526874  ISSUED:    6522651  USEFUL:      48685  USELESS:     668901
L2C AVERAGE MISS LATENCY: 44.3248 cycles
L2C

SHEET
L2C-total_access : 6258123
L2C-total_hit : 5135146
L2C-total_miss : 1122977
L2C-load_access : 1847693
L2C-load_hit : 1487171
L2C-load_miss : 360522
L2C-rfo_access : 93496
L2C-rfo_hit : 49369
L2C-rfo_miss : 44127
L2C-prefetch_access : 4051558
L2C-prefetch_hit : 3334345
L2C-prefetch_miss : 717213
L2C-writeback_access : 265376
L2C-writeback_hit : 264261
L2C-writeback_miss : 1115
L2C-prefetch_requested : 6526874
L2C-prefetch_issued : 6522651
L2C-prefetch_useful : 48685
L2C-prefetch_useless : 668901
L2C-Avg_miss_latency : 44.3248
L2C-Morteza_fill_l2_prefetches : 1138823

LLC TOTAL     ACCESS:    2526366  HIT:    2400794  MISS:     125572
LLC LOAD      ACCESS:     358660  HIT:     338072  MISS:      20588
LLC RFO       ACCESS:      44123  HIT:      36162  MISS:       7961
LLC PREFETCH  ACCESS:    1974120  HIT:    1877309  MISS:      96811
LLC WRITEBACK ACCESS:     149463  HIT:     149251  MISS:        212
LLC PREFETCH  REQUESTED:          0  ISSUED:          0  USEFUL:      11928  USELESS:      84717
LLC AVERAGE MISS LATENCY: 170.703 cycles
LLC

SHEET
LLC-total_access : 2526366
LLC-total_hit : 2400794
LLC-total_miss : 125572
LLC-load_access : 358660
LLC-load_hit : 338072
LLC-load_miss : 20588
LLC-rfo_access : 44123
LLC-rfo_hit : 36162
LLC-rfo_miss : 7961
LLC-prefetch_access : 1974120
LLC-prefetch_hit : 1877309
LLC-prefetch_miss : 96811
LLC-writeback_access : 149463
LLC-writeback_hit : 149251
LLC-writeback_miss : 212
LLC-prefetch_requested : 0
LLC-prefetch_issued : 0
LLC-prefetch_useful : 11928
LLC-prefetch_useless : 84717
LLC-Avg_miss_latency : 170.703
LLC-Morteza_fill_l2_prefetches : 1253243

Major fault: 0 Minor fault: 5593



Printing Logs
statHeadFound: 1596243
statHeadMissing: 1341161
statStreamBufferHit: 10021810
statPrefetchEntryFound: 6873157
statCompactorMatch: 10583582
statStreamTrackerLookup: 12959214
statRecord: 2375632
statGetPointer: 2937404
statEnqueuePrefetch: 22563626
statPrefetchQueueIsFull: 7878
StreamBufferHitRate: 0.773335
Regions' size: 3952
next_region_correct: 1876460
next_region_wrong: 495212
next_region_correct_prediction: 0.791197
statStreamBufferLookups: 129592140
statL1iLookups: 180509008
statCompactorLookups: 207347424
morteza: start

SHEET
mana_table_access_counter : 9256659
hobp_table_access_counter : 28133232
sab_access_counter : 16894967
srq_access_counter : 13577758

morteza: end
CPU 0 L1D next line prefetcher final stats

DRAM Statistics
 CHANNEL 0
 RQ ROW_BUFFER_HIT:      19757  ROW_BUFFER_MISS:     105598
 DBUS_CONGESTED:      57788
 WQ ROW_BUFFER_HIT:       9925  ROW_BUFFER_MISS:      43559  FULL:          0

 AVG_CONGESTED_CYCLE: 5

CPU 0 Branch Prediction Accuracy: 99.5528% MPKI: 0.89798 Average ROB Occupancy at Mispredict: 109.571

Branch types
NOT_BRANCH: 39958794 79.9176%
BRANCH_DIRECT_JUMP: 449946 0.899892%
BRANCH_INDIRECT: 140210 0.28042%
BRANCH_CONDITIONAL: 7679677 15.3594%
BRANCH_DIRECT_CALL: 701578 1.40316%
BRANCH_INDIRECT_CALL: 168971 0.337942%
BRANCH_RETURN: 900560 1.80112%
BRANCH_OTHER: 0 0%

