Initialize SIGNATURE TABLE
ST_SET: 1
ST_WAY: 256
ST_TAG_BIT: 16
ST_TAG_MASK: ffff

Initialize PATTERN TABLE
PT_SET: 512
PT_WAY: 4
SIG_DELTA_BIT: 7
C_SIG_BIT: 4
C_DELTA_BIT: 4

Initialize PREFETCH FILTER
FILTER_SET: 1024
MANA initialize 
tds: 2 tdm: 2
size MANA SINGLE: 15.5 KB
size MANA NULTIPLE: 0 KB
size HOBPT: 0.703125 KB
size SRQ: 0.0644531 KB
size SABs: 0.0402832 KB
size prefetch queue: 0.453125 KB
total: 16.761 KB

*** ChampSim Multicore Out-of-Order Simulator ***

Warmup Instructions: 50000000
Simulation Instructions: 50000000
Number of CPUs: 1
LLC sets: 2048
LLC ways: 16
Off-chip DRAM Size: 4096 MB Channels: 1 Width: 64-bit Data Rate: 3200 MT/s

CPU 0 runs /home/mbaradaran/ChampSim/dpc3_traces/server_019.champsimtrace.xz
CPU 0 L1D next line prefetcher
Heartbeat CPU 0 instructions: 10000002 cycles: 3624489 heartbeat IPC: 2.75901 cumulative IPC: 2.75901 (Simulation time: 0 hr 1 min 25 sec) 
Heartbeat CPU 0 instructions: 20000003 cycles: 7250312 heartbeat IPC: 2.75799 cumulative IPC: 2.7585 (Simulation time: 0 hr 2 min 55 sec) 
Heartbeat CPU 0 instructions: 30000002 cycles: 10875005 heartbeat IPC: 2.75885 cumulative IPC: 2.75862 (Simulation time: 0 hr 4 min 27 sec) 
Heartbeat CPU 0 instructions: 40000002 cycles: 14511435 heartbeat IPC: 2.74995 cumulative IPC: 2.75645 (Simulation time: 0 hr 6 min 0 sec) 
Heartbeat CPU 0 instructions: 50000001 cycles: 18136359 heartbeat IPC: 2.75868 cumulative IPC: 2.75689 (Simulation time: 0 hr 7 min 35 sec) 

Warmup complete CPU 0 instructions: 50000001 cycles: 18136359 (Simulation time: 0 hr 7 min 35 sec) 

Heartbeat CPU 0 instructions: 60000001 cycles: 38035765 heartbeat IPC: 0.502528 cumulative IPC: 0.502528 (Simulation time: 0 hr 9 min 48 sec) 
Heartbeat CPU 0 instructions: 70000002 cycles: 61818671 heartbeat IPC: 0.42047 cumulative IPC: 0.457851 (Simulation time: 0 hr 11 min 57 sec) 
Heartbeat CPU 0 instructions: 80000001 cycles: 82504690 heartbeat IPC: 0.483418 cumulative IPC: 0.466068 (Simulation time: 0 hr 14 min 2 sec) 
Heartbeat CPU 0 instructions: 90000002 cycles: 100237404 heartbeat IPC: 0.563929 cumulative IPC: 0.487205 (Simulation time: 0 hr 16 min 5 sec) 
Heartbeat CPU 0 instructions: 100000002 cycles: 117967580 heartbeat IPC: 0.56401 cumulative IPC: 0.500845 (Simulation time: 0 hr 18 min 14 sec) 
Finished CPU 0 instructions: 50000001 cycles: 99831221 cumulative IPC: 0.500845 (Simulation time: 0 hr 18 min 14 sec) 

ChampSim completed all CPUs

Region of Interest Statistics

CPU 0 cumulative IPC: 0.500845 instructions: 50000001 cycles: 99831221

SHEET
IPC : 0.500845

L1D TOTAL     ACCESS:   18373887  HIT:   16150212  MISS:    2223675
L1D LOAD      ACCESS:    7007814  HIT:    6252873  MISS:     754941
L1D RFO       ACCESS:    5518538  HIT:    4616608  MISS:     901930
L1D PREFETCH  ACCESS:    5847535  HIT:    5280731  MISS:     566804
L1D WRITEBACK ACCESS:          0  HIT:          0  MISS:          0
L1D PREFETCH  REQUESTED:    7045221  ISSUED:    6859659  USEFUL:     197540  USELESS:     369172
L1D AVERAGE MISS LATENCY: 184.911 cycles
L1D

SHEET
L1D-total_access : 18373887
L1D-total_hit : 16150212
L1D-total_miss : 2223675
L1D-load_access : 7007814
L1D-load_hit : 6252873
L1D-load_miss : 754941
L1D-rfo_access : 5518538
L1D-rfo_hit : 4616608
L1D-rfo_miss : 901930
L1D-prefetch_access : 5847535
L1D-prefetch_hit : 5280731
L1D-prefetch_miss : 566804
L1D-writeback_access : 0
L1D-writeback_hit : 0
L1D-writeback_miss : 0
L1D-prefetch_requested : 7045221
L1D-prefetch_issued : 6859659
L1D-prefetch_useful : 197540
L1D-prefetch_useless : 369172
L1D-Avg_miss_latency : 184.911
L1D-Morteza_fill_l2_prefetches : 0

L1I TOTAL     ACCESS:   17486237  HIT:   15298098  MISS:    2188139
L1I LOAD      ACCESS:    9774444  HIT:    9390859  MISS:     383585
L1I RFO       ACCESS:          0  HIT:          0  MISS:          0
L1I PREFETCH  ACCESS:    7711793  HIT:    5907239  MISS:    1804554
L1I WRITEBACK ACCESS:          0  HIT:          0  MISS:          0
L1I PREFETCH  REQUESTED:    8425270  ISSUED:    8412425  USEFUL:    1704867  USELESS:      99677
L1I AVERAGE MISS LATENCY: 17.3322 cycles
L1I

SHEET
L1I-total_access : 17486237
L1I-total_hit : 15298098
L1I-total_miss : 2188139
L1I-load_access : 9774444
L1I-load_hit : 9390859
L1I-load_miss : 383585
L1I-rfo_access : 0
L1I-rfo_hit : 0
L1I-rfo_miss : 0
L1I-prefetch_access : 7711793
L1I-prefetch_hit : 5907239
L1I-prefetch_miss : 1804554
L1I-writeback_access : 0
L1I-writeback_hit : 0
L1I-writeback_miss : 0
L1I-prefetch_requested : 8425270
L1I-prefetch_issued : 8412425
L1I-prefetch_useful : 1704867
L1I-prefetch_useless : 99677
L1I-Avg_miss_latency : 17.3322
L1I-Morteza_fill_l2_prefetches : 0

L2C TOTAL     ACCESS:    6483943  HIT:    4593747  MISS:    1890196
L2C LOAD      ACCESS:     736350  HIT:     393443  MISS:     342907
L2C RFO       ACCESS:     901530  HIT:      18270  MISS:     883260
L2C PREFETCH  ACCESS:    3671399  HIT:    3009536  MISS:     661863
L2C WRITEBACK ACCESS:    1174664  HIT:    1172498  MISS:       2166
L2C PREFETCH  REQUESTED:    3807859  ISSUED:    3804100  USEFUL:      26260  USELESS:     634218
L2C AVERAGE MISS LATENCY: 221.311 cycles
L2C

SHEET
L2C-total_access : 6483943
L2C-total_hit : 4593747
L2C-total_miss : 1890196
L2C-load_access : 736350
L2C-load_hit : 393443
L2C-load_miss : 342907
L2C-rfo_access : 901530
L2C-rfo_hit : 18270
L2C-rfo_miss : 883260
L2C-prefetch_access : 3671399
L2C-prefetch_hit : 3009536
L2C-prefetch_miss : 661863
L2C-writeback_access : 1174664
L2C-writeback_hit : 1172498
L2C-writeback_miss : 2166
L2C-prefetch_requested : 3807859
L2C-prefetch_issued : 3804100
L2C-prefetch_useful : 26260
L2C-prefetch_useless : 634218
L2C-Avg_miss_latency : 221.311
L2C-Morteza_fill_l2_prefetches : 904453

LLC TOTAL     ACCESS:    4148506  HIT:    2547976  MISS:    1600530
LLC LOAD      ACCESS:     342781  HIT:     175664  MISS:     167117
LLC RFO       ACCESS:     883260  HIT:     114583  MISS:     768677
LLC PREFETCH  ACCESS:    1812088  HIT:    1149527  MISS:     662561
LLC WRITEBACK ACCESS:    1110377  HIT:    1108202  MISS:       2175
LLC PREFETCH  REQUESTED:          0  ISSUED:          0  USEFUL:      52193  USELESS:     609260
LLC AVERAGE MISS LATENCY: 271.886 cycles
LLC

SHEET
LLC-total_access : 4148506
LLC-total_hit : 2547976
LLC-total_miss : 1600530
LLC-load_access : 342781
LLC-load_hit : 175664
LLC-load_miss : 167117
LLC-rfo_access : 883260
LLC-rfo_hit : 114583
LLC-rfo_miss : 768677
LLC-prefetch_access : 1812088
LLC-prefetch_hit : 1149527
LLC-prefetch_miss : 662561
LLC-writeback_access : 1110377
LLC-writeback_hit : 1108202
LLC-writeback_miss : 2175
LLC-prefetch_requested : 0
LLC-prefetch_issued : 0
LLC-prefetch_useful : 52193
LLC-prefetch_useless : 609260
LLC-Avg_miss_latency : 271.886
LLC-Morteza_fill_l2_prefetches : 852139

Major fault: 0 Minor fault: 25691



Printing Logs
statHeadFound: 1222631
statHeadMissing: 2019316
statStreamBufferHit: 9994744
statPrefetchEntryFound: 5844103
statCompactorMatch: 10656119
statStreamTrackerLookup: 13236691
statRecord: 2580572
statGetPointer: 3241947
statEnqueuePrefetch: 17621218
statPrefetchQueueIsFull: 0
StreamBufferHitRate: 0.755079
Regions' size: 1493
next_region_correct: 2079456
next_region_wrong: 499615
next_region_correct_prediction: 0.806281
statStreamBufferLookups: 132366910
statL1iLookups: 140969744
statCompactorLookups: 211787056
morteza: start

SHEET
mana_table_access_counter : 8424667
hobp_table_access_counter : 29134180
sab_access_counter : 15838847
srq_access_counter : 15036476

morteza: end
CPU 0 L1D next line prefetcher final stats

DRAM Statistics
 CHANNEL 0
 RQ ROW_BUFFER_HIT:     395374  ROW_BUFFER_MISS:    1202696
 DBUS_CONGESTED:    1574781
 WQ ROW_BUFFER_HIT:     268640  ROW_BUFFER_MISS:     667089  FULL:          0

 AVG_CONGESTED_CYCLE: 6

CPU 0 Branch Prediction Accuracy: 99.2186% MPKI: 1.32192 Average ROB Occupancy at Mispredict: 176.969

Branch types
NOT_BRANCH: 41540785 83.0816%
BRANCH_DIRECT_JUMP: 462384 0.924768%
BRANCH_INDIRECT: 45460 0.09092%
BRANCH_CONDITIONAL: 6209281 12.4186%
BRANCH_DIRECT_CALL: 666241 1.33248%
BRANCH_INDIRECT_CALL: 204728 0.409456%
BRANCH_RETURN: 870978 1.74196%
BRANCH_OTHER: 0 0%

