Initialize SIGNATURE TABLE
ST_SET: 1
ST_WAY: 256
ST_TAG_BIT: 16
ST_TAG_MASK: ffff

Initialize PATTERN TABLE
PT_SET: 512
PT_WAY: 4
SIG_DELTA_BIT: 7
C_SIG_BIT: 4
C_DELTA_BIT: 4

Initialize PREFETCH FILTER
FILTER_SET: 1024
MANA initialize 
tds: 2 tdm: 2
size MANA SINGLE: 15.5 KB
size MANA NULTIPLE: 0 KB
size HOBPT: 0.703125 KB
size SRQ: 0.0644531 KB
size SABs: 0.0402832 KB
size prefetch queue: 0.453125 KB
total: 16.761 KB

*** ChampSim Multicore Out-of-Order Simulator ***

Warmup Instructions: 50000000
Simulation Instructions: 50000000
Number of CPUs: 1
LLC sets: 2048
LLC ways: 16
Off-chip DRAM Size: 4096 MB Channels: 1 Width: 64-bit Data Rate: 3200 MT/s

CPU 0 runs /home/mbaradaran/ChampSim/dpc3_traces/server_034.champsimtrace.xz
CPU 0 L1D next line prefetcher
Heartbeat CPU 0 instructions: 10000000 cycles: 3332311 heartbeat IPC: 3.00092 cumulative IPC: 3.00092 (Simulation time: 0 hr 1 min 28 sec) 
Heartbeat CPU 0 instructions: 20000002 cycles: 6657274 heartbeat IPC: 3.00755 cumulative IPC: 3.00423 (Simulation time: 0 hr 2 min 56 sec) 
Heartbeat CPU 0 instructions: 30000003 cycles: 9990886 heartbeat IPC: 2.99975 cumulative IPC: 3.00274 (Simulation time: 0 hr 4 min 23 sec) 
Heartbeat CPU 0 instructions: 40000001 cycles: 13322521 heartbeat IPC: 3.00153 cumulative IPC: 3.00243 (Simulation time: 0 hr 5 min 53 sec) 
Heartbeat CPU 0 instructions: 50000000 cycles: 16653193 heartbeat IPC: 3.0024 cumulative IPC: 3.00243 (Simulation time: 0 hr 7 min 22 sec) 

Warmup complete CPU 0 instructions: 50000002 cycles: 16653194 (Simulation time: 0 hr 7 min 22 sec) 

Heartbeat CPU 0 instructions: 60000002 cycles: 22934425 heartbeat IPC: 1.59204 cumulative IPC: 1.59204 (Simulation time: 0 hr 8 min 42 sec) 
Heartbeat CPU 0 instructions: 70000003 cycles: 29568190 heartbeat IPC: 1.50744 cumulative IPC: 1.54859 (Simulation time: 0 hr 10 min 4 sec) 
Heartbeat CPU 0 instructions: 80000002 cycles: 35887536 heartbeat IPC: 1.58244 cumulative IPC: 1.55971 (Simulation time: 0 hr 11 min 26 sec) 
Heartbeat CPU 0 instructions: 90000002 cycles: 42205086 heartbeat IPC: 1.58289 cumulative IPC: 1.56544 (Simulation time: 0 hr 12 min 49 sec) 
Heartbeat CPU 0 instructions: 100000002 cycles: 48524565 heartbeat IPC: 1.58241 cumulative IPC: 1.56881 (Simulation time: 0 hr 14 min 7 sec) 
Finished CPU 0 instructions: 50000000 cycles: 31871371 cumulative IPC: 1.56881 (Simulation time: 0 hr 14 min 7 sec) 

ChampSim completed all CPUs

Region of Interest Statistics

CPU 0 cumulative IPC: 1.56881 instructions: 50000000 cycles: 31871371

SHEET
IPC : 1.56881

L1D TOTAL     ACCESS:   18677850  HIT:   17253647  MISS:    1424203
L1D LOAD      ACCESS:    6342362  HIT:    5686890  MISS:     655472
L1D RFO       ACCESS:    6168837  HIT:    6025691  MISS:     143146
L1D PREFETCH  ACCESS:    6166651  HIT:    5541066  MISS:     625585
L1D WRITEBACK ACCESS:          0  HIT:          0  MISS:          0
L1D PREFETCH  REQUESTED:    6379105  ISSUED:    6298201  USEFUL:     140966  USELESS:     484588
L1D AVERAGE MISS LATENCY: 17.8152 cycles
L1D

SHEET
L1D-total_access : 18677850
L1D-total_hit : 17253647
L1D-total_miss : 1424203
L1D-load_access : 6342362
L1D-load_hit : 5686890
L1D-load_miss : 655472
L1D-rfo_access : 6168837
L1D-rfo_hit : 6025691
L1D-rfo_miss : 143146
L1D-prefetch_access : 6166651
L1D-prefetch_hit : 5541066
L1D-prefetch_miss : 625585
L1D-writeback_access : 0
L1D-writeback_hit : 0
L1D-writeback_miss : 0
L1D-prefetch_requested : 6379105
L1D-prefetch_issued : 6298201
L1D-prefetch_useful : 140966
L1D-prefetch_useless : 484588
L1D-Avg_miss_latency : 17.8152
L1D-Morteza_fill_l2_prefetches : 0

L1I TOTAL     ACCESS:   21797965  HIT:   17780921  MISS:    4017044
L1I LOAD      ACCESS:    9440714  HIT:    8613528  MISS:     827186
L1I RFO       ACCESS:          0  HIT:          0  MISS:          0
L1I PREFETCH  ACCESS:   12357251  HIT:    9167393  MISS:    3189858
L1I WRITEBACK ACCESS:          0  HIT:          0  MISS:          0
L1I PREFETCH  REQUESTED:   13985520  ISSUED:   13953527  USEFUL:    2538342  USELESS:     651544
L1I AVERAGE MISS LATENCY: 14.0892 cycles
L1I

SHEET
L1I-total_access : 21797965
L1I-total_hit : 17780921
L1I-total_miss : 4017044
L1I-load_access : 9440714
L1I-load_hit : 8613528
L1I-load_miss : 827186
L1I-rfo_access : 0
L1I-rfo_hit : 0
L1I-rfo_miss : 0
L1I-prefetch_access : 12357251
L1I-prefetch_hit : 9167393
L1I-prefetch_miss : 3189858
L1I-writeback_access : 0
L1I-writeback_hit : 0
L1I-writeback_miss : 0
L1I-prefetch_requested : 13985520
L1I-prefetch_issued : 13953527
L1I-prefetch_useful : 2538342
L1I-prefetch_useless : 651544
L1I-Avg_miss_latency : 14.0892
L1I-Morteza_fill_l2_prefetches : 0

L2C TOTAL     ACCESS:    7308304  HIT:    7162865  MISS:     145439
L2C LOAD      ACCESS:    1166569  HIT:    1115776  MISS:      50793
L2C RFO       ACCESS:     141383  HIT:     132893  MISS:       8490
L2C PREFETCH  ACCESS:    5649484  HIT:    5564178  MISS:      85306
L2C WRITEBACK ACCESS:     350868  HIT:     350018  MISS:        850
L2C PREFETCH  REQUESTED:    5856600  ISSUED:    5845467  USEFUL:       3738  USELESS:      80517
L2C AVERAGE MISS LATENCY: 38.5813 cycles
L2C

SHEET
L2C-total_access : 7308304
L2C-total_hit : 7162865
L2C-total_miss : 145439
L2C-load_access : 1166569
L2C-load_hit : 1115776
L2C-load_miss : 50793
L2C-rfo_access : 141383
L2C-rfo_hit : 132893
L2C-rfo_miss : 8490
L2C-prefetch_access : 5649484
L2C-prefetch_hit : 5564178
L2C-prefetch_miss : 85306
L2C-writeback_access : 350868
L2C-writeback_hit : 350018
L2C-writeback_miss : 850
L2C-prefetch_requested : 5856600
L2C-prefetch_issued : 5845467
L2C-prefetch_useful : 3738
L2C-prefetch_useless : 80517
L2C-Avg_miss_latency : 38.5813
L2C-Morteza_fill_l2_prefetches : 1531840

LLC TOTAL     ACCESS:    1707071  HIT:    1694264  MISS:      12807
LLC LOAD      ACCESS:      50714  HIT:      47952  MISS:       2762
LLC RFO       ACCESS:       8489  HIT:       8220  MISS:        269
LLC PREFETCH  ACCESS:    1607103  HIT:    1597401  MISS:       9702
LLC WRITEBACK ACCESS:      40765  HIT:      40691  MISS:         74
LLC PREFETCH  REQUESTED:          0  ISSUED:          0  USEFUL:       2989  USELESS:       4259
LLC AVERAGE MISS LATENCY: 150.11 cycles
LLC

SHEET
LLC-total_access : 1707071
LLC-total_hit : 1694264
LLC-total_miss : 12807
LLC-load_access : 50714
LLC-load_hit : 47952
LLC-load_miss : 2762
LLC-rfo_access : 8489
LLC-rfo_hit : 8220
LLC-rfo_miss : 269
LLC-prefetch_access : 1607103
LLC-prefetch_hit : 1597401
LLC-prefetch_miss : 9702
LLC-writeback_access : 40765
LLC-writeback_hit : 40691
LLC-writeback_miss : 74
LLC-prefetch_requested : 0
LLC-prefetch_issued : 0
LLC-prefetch_useful : 2989
LLC-prefetch_useless : 4259
LLC-Avg_miss_latency : 150.11
LLC-Morteza_fill_l2_prefetches : 1518870

Major fault: 0 Minor fault: 1170



Printing Logs
statHeadFound: 2271502
statHeadMissing: 1986266
statStreamBufferHit: 10878386
statPrefetchEntryFound: 9597115
statCompactorMatch: 11682299
statStreamTrackerLookup: 15136154
statRecord: 3453855
statGetPointer: 4257768
statEnqueuePrefetch: 27748297
statPrefetchQueueIsFull: 9913
StreamBufferHitRate: 0.718702
Regions' size: 1466
next_region_correct: 2508710
next_region_wrong: 943671
next_region_correct_prediction: 0.726661
statStreamBufferLookups: 151361540
statL1iLookups: 221986376
statCompactorLookups: 242178464
morteza: start

SHEET
mana_table_access_counter : 13060875
hobp_table_access_counter : 40453517
sab_access_counter : 20475501
srq_access_counter : 17228434

morteza: end
CPU 0 L1D next line prefetcher final stats

DRAM Statistics
 CHANNEL 0
 RQ ROW_BUFFER_HIT:       3683  ROW_BUFFER_MISS:       9048
 DBUS_CONGESTED:       5905
 WQ ROW_BUFFER_HIT:       1078  ROW_BUFFER_MISS:       2667  FULL:          0

 AVG_CONGESTED_CYCLE: 5

CPU 0 Branch Prediction Accuracy: 99.926% MPKI: 0.14472 Average ROB Occupancy at Mispredict: 189.331

Branch types
NOT_BRANCH: 40220945 80.4419%
BRANCH_DIRECT_JUMP: 771319 1.54264%
BRANCH_INDIRECT: 108663 0.217326%
BRANCH_CONDITIONAL: 6375030 12.7501%
BRANCH_DIRECT_CALL: 1049634 2.09927%
BRANCH_INDIRECT_CALL: 212281 0.424562%
BRANCH_RETURN: 1261923 2.52385%
BRANCH_OTHER: 0 0%

