Initialize SIGNATURE TABLE
ST_SET: 1
ST_WAY: 256
ST_TAG_BIT: 16
ST_TAG_MASK: ffff

Initialize PATTERN TABLE
PT_SET: 512
PT_WAY: 4
SIG_DELTA_BIT: 7
C_SIG_BIT: 4
C_DELTA_BIT: 4

Initialize PREFETCH FILTER
FILTER_SET: 1024
MANA initialize 
tds: 2 tdm: 2
size MANA SINGLE: 15.5 KB
size MANA NULTIPLE: 0 KB
size HOBPT: 0.703125 KB
size SRQ: 0.0644531 KB
size SABs: 0.0402832 KB
size prefetch queue: 0.453125 KB
total: 16.761 KB

*** ChampSim Multicore Out-of-Order Simulator ***

Warmup Instructions: 50000000
Simulation Instructions: 50000000
Number of CPUs: 1
LLC sets: 2048
LLC ways: 16
Off-chip DRAM Size: 4096 MB Channels: 1 Width: 64-bit Data Rate: 3200 MT/s

CPU 0 runs /home/mbaradaran/ChampSim/dpc3_traces/server_016.champsimtrace.xz
CPU 0 L1D next line prefetcher
Heartbeat CPU 0 instructions: 10000000 cycles: 3498742 heartbeat IPC: 2.85817 cumulative IPC: 2.85817 (Simulation time: 0 hr 1 min 25 sec) 
Heartbeat CPU 0 instructions: 20000000 cycles: 6997482 heartbeat IPC: 2.85817 cumulative IPC: 2.85817 (Simulation time: 0 hr 2 min 55 sec) 
Heartbeat CPU 0 instructions: 30000001 cycles: 10492072 heartbeat IPC: 2.86157 cumulative IPC: 2.8593 (Simulation time: 0 hr 4 min 18 sec) 
Heartbeat CPU 0 instructions: 40000000 cycles: 13790614 heartbeat IPC: 3.03164 cumulative IPC: 2.90052 (Simulation time: 0 hr 5 min 8 sec) 
Heartbeat CPU 0 instructions: 50000002 cycles: 17026079 heartbeat IPC: 3.09075 cumulative IPC: 2.93667 (Simulation time: 0 hr 5 min 46 sec) 

Warmup complete CPU 0 instructions: 50000002 cycles: 17026079 (Simulation time: 0 hr 5 min 46 sec) 

Heartbeat CPU 0 instructions: 60000001 cycles: 25051498 heartbeat IPC: 1.24604 cumulative IPC: 1.24604 (Simulation time: 0 hr 6 min 23 sec) 
Heartbeat CPU 0 instructions: 70000001 cycles: 32321979 heartbeat IPC: 1.37542 cumulative IPC: 1.30754 (Simulation time: 0 hr 7 min 44 sec) 
Heartbeat CPU 0 instructions: 80000001 cycles: 39725408 heartbeat IPC: 1.35073 cumulative IPC: 1.32162 (Simulation time: 0 hr 9 min 4 sec) 
Heartbeat CPU 0 instructions: 90000000 cycles: 46897535 heartbeat IPC: 1.39429 cumulative IPC: 1.33907 (Simulation time: 0 hr 10 min 22 sec) 
Heartbeat CPU 0 instructions: 100000000 cycles: 54215785 heartbeat IPC: 1.36645 cumulative IPC: 1.34446 (Simulation time: 0 hr 11 min 41 sec) 
Finished CPU 0 instructions: 50000001 cycles: 37189707 cumulative IPC: 1.34446 (Simulation time: 0 hr 11 min 41 sec) 

ChampSim completed all CPUs

Region of Interest Statistics

CPU 0 cumulative IPC: 1.34446 instructions: 50000001 cycles: 37189707

SHEET
IPC : 1.34446

L1D TOTAL     ACCESS:   18427689  HIT:   17159791  MISS:    1267898
L1D LOAD      ACCESS:    6748413  HIT:    6176816  MISS:     571597
L1D RFO       ACCESS:    5206764  HIT:    4984752  MISS:     222012
L1D PREFETCH  ACCESS:    6472512  HIT:    5998223  MISS:     474289
L1D WRITEBACK ACCESS:          0  HIT:          0  MISS:          0
L1D PREFETCH  REQUESTED:    6791186  ISSUED:    6691426  USEFUL:     114864  USELESS:     359443
L1D AVERAGE MISS LATENCY: 22.8791 cycles
L1D

SHEET
L1D-total_access : 18427689
L1D-total_hit : 17159791
L1D-total_miss : 1267898
L1D-load_access : 6748413
L1D-load_hit : 6176816
L1D-load_miss : 571597
L1D-rfo_access : 5206764
L1D-rfo_hit : 4984752
L1D-rfo_miss : 222012
L1D-prefetch_access : 6472512
L1D-prefetch_hit : 5998223
L1D-prefetch_miss : 474289
L1D-writeback_access : 0
L1D-writeback_hit : 0
L1D-writeback_miss : 0
L1D-prefetch_requested : 6791186
L1D-prefetch_issued : 6691426
L1D-prefetch_useful : 114864
L1D-prefetch_useless : 359443
L1D-Avg_miss_latency : 22.8791
L1D-Morteza_fill_l2_prefetches : 0

L1I TOTAL     ACCESS:   17852417  HIT:   14996122  MISS:    2856295
L1I LOAD      ACCESS:    9679104  HIT:    8927366  MISS:     751738
L1I RFO       ACCESS:          0  HIT:          0  MISS:          0
L1I PREFETCH  ACCESS:    8173313  HIT:    6068756  MISS:    2104557
L1I WRITEBACK ACCESS:          0  HIT:          0  MISS:          0
L1I PREFETCH  REQUESTED:    9171715  ISSUED:    9152747  USEFUL:    1395225  USELESS:     709279
L1I AVERAGE MISS LATENCY: 16.174 cycles
L1I

SHEET
L1I-total_access : 17852417
L1I-total_hit : 14996122
L1I-total_miss : 2856295
L1I-load_access : 9679104
L1I-load_hit : 8927366
L1I-load_miss : 751738
L1I-rfo_access : 0
L1I-rfo_hit : 0
L1I-rfo_miss : 0
L1I-prefetch_access : 8173313
L1I-prefetch_hit : 6068756
L1I-prefetch_miss : 2104557
L1I-writeback_access : 0
L1I-writeback_hit : 0
L1I-writeback_miss : 0
L1I-prefetch_requested : 9171715
L1I-prefetch_issued : 9152747
L1I-prefetch_useful : 1395225
L1I-prefetch_useless : 709279
L1I-Avg_miss_latency : 16.174
L1I-Morteza_fill_l2_prefetches : 0

L2C TOTAL     ACCESS:    5692539  HIT:    5190642  MISS:     501897
L2C LOAD      ACCESS:    1053352  HIT:     904239  MISS:     149113
L2C RFO       ACCESS:     220598  HIT:     160133  MISS:      60465
L2C PREFETCH  ACCESS:    3990352  HIT:    3699904  MISS:     290448
L2C WRITEBACK ACCESS:     428237  HIT:     426366  MISS:       1871
L2C PREFETCH  REQUESTED:    4820934  ISSUED:    4813875  USEFUL:      24084  USELESS:     266058
L2C AVERAGE MISS LATENCY: 41.628 cycles
L2C

SHEET
L2C-total_access : 5692539
L2C-total_hit : 5190642
L2C-total_miss : 501897
L2C-load_access : 1053352
L2C-load_hit : 904239
L2C-load_miss : 149113
L2C-rfo_access : 220598
L2C-rfo_hit : 160133
L2C-rfo_miss : 60465
L2C-prefetch_access : 3990352
L2C-prefetch_hit : 3699904
L2C-prefetch_miss : 290448
L2C-writeback_access : 428237
L2C-writeback_hit : 426366
L2C-writeback_miss : 1871
L2C-prefetch_requested : 4820934
L2C-prefetch_issued : 4813875
L2C-prefetch_useful : 24084
L2C-prefetch_useless : 266058
L2C-Avg_miss_latency : 41.628
L2C-Morteza_fill_l2_prefetches : 1174992

LLC TOTAL     ACCESS:    1858658  HIT:    1822498  MISS:      36160
LLC LOAD      ACCESS:     148981  HIT:     144613  MISS:       4368
LLC RFO       ACCESS:      60465  HIT:      47093  MISS:      13372
LLC PREFETCH  ACCESS:    1551058  HIT:    1532788  MISS:      18270
LLC WRITEBACK ACCESS:      98154  HIT:      98004  MISS:        150
LLC PREFETCH  REQUESTED:          0  ISSUED:          0  USEFUL:       2007  USELESS:      15981
LLC AVERAGE MISS LATENCY: 176.076 cycles
LLC

SHEET
LLC-total_access : 1858658
LLC-total_hit : 1822498
LLC-total_miss : 36160
LLC-load_access : 148981
LLC-load_hit : 144613
LLC-load_miss : 4368
LLC-rfo_access : 60465
LLC-rfo_hit : 47093
LLC-rfo_miss : 13372
LLC-prefetch_access : 1551058
LLC-prefetch_hit : 1532788
LLC-prefetch_miss : 18270
LLC-writeback_access : 98154
LLC-writeback_hit : 98004
LLC-writeback_miss : 150
LLC-prefetch_requested : 0
LLC-prefetch_issued : 0
LLC-prefetch_useful : 2007
LLC-prefetch_useless : 15981
LLC-Avg_miss_latency : 176.076
LLC-Morteza_fill_l2_prefetches : 1262420

Major fault: 0 Minor fault: 2365



Printing Logs
statHeadFound: 1472890
statHeadMissing: 1675109
statStreamBufferHit: 11616478
statPrefetchEntryFound: 6112777
statCompactorMatch: 12402177
statStreamTrackerLookup: 14764477
statRecord: 2362300
statGetPointer: 3147999
statEnqueuePrefetch: 16437189
statPrefetchQueueIsFull: 130
StreamBufferHitRate: 0.786786
Regions' size: 2447
next_region_correct: 1622689
next_region_wrong: 737156
next_region_correct_prediction: 0.687625
statStreamBufferLookups: 147644770
statL1iLookups: 131497512
statCompactorLookups: 236231632
morteza: start

SHEET
mana_table_access_counter : 8475199
hobp_table_access_counter : 28154143
sab_access_counter : 17729255
srq_access_counter : 16271951

morteza: end
CPU 0 L1D next line prefetcher final stats

DRAM Statistics
 CHANNEL 0
 RQ ROW_BUFFER_HIT:      11481  ROW_BUFFER_MISS:      24527
 DBUS_CONGESTED:      23682
 WQ ROW_BUFFER_HIT:       1635  ROW_BUFFER_MISS:      14523  FULL:          0

 AVG_CONGESTED_CYCLE: 6

CPU 0 Branch Prediction Accuracy: 99.7225% MPKI: 0.50376 Average ROB Occupancy at Mispredict: 105.525

Branch types
NOT_BRANCH: 40923882 81.8478%
BRANCH_DIRECT_JUMP: 487045 0.97409%
BRANCH_INDIRECT: 169158 0.338316%
BRANCH_CONDITIONAL: 6640823 13.2816%
BRANCH_DIRECT_CALL: 755586 1.51117%
BRANCH_INDIRECT_CALL: 133962 0.267924%
BRANCH_RETURN: 889566 1.77913%
BRANCH_OTHER: 0 0%

