Initialize SIGNATURE TABLE
ST_SET: 1
ST_WAY: 256
ST_TAG_BIT: 16
ST_TAG_MASK: ffff

Initialize PATTERN TABLE
PT_SET: 512
PT_WAY: 4
SIG_DELTA_BIT: 7
C_SIG_BIT: 4
C_DELTA_BIT: 4

Initialize PREFETCH FILTER
FILTER_SET: 1024
MANA initialize 
tds: 2 tdm: 2
size MANA SINGLE: 15.5 KB
size MANA NULTIPLE: 0 KB
size HOBPT: 0.703125 KB
size SRQ: 0.0644531 KB
size SABs: 0.0402832 KB
size prefetch queue: 0.453125 KB
total: 16.761 KB

*** ChampSim Multicore Out-of-Order Simulator ***

Warmup Instructions: 50000000
Simulation Instructions: 50000000
Number of CPUs: 1
LLC sets: 2048
LLC ways: 16
Off-chip DRAM Size: 4096 MB Channels: 1 Width: 64-bit Data Rate: 3200 MT/s

CPU 0 runs /home/mbaradaran/ChampSim/dpc3_traces/server_021.champsimtrace.xz
CPU 0 L1D next line prefetcher
Heartbeat CPU 0 instructions: 10000000 cycles: 3625594 heartbeat IPC: 2.75817 cumulative IPC: 2.75817 (Simulation time: 0 hr 1 min 25 sec) 
Heartbeat CPU 0 instructions: 20000000 cycles: 7245440 heartbeat IPC: 2.76255 cumulative IPC: 2.76036 (Simulation time: 0 hr 2 min 50 sec) 
Heartbeat CPU 0 instructions: 30000003 cycles: 10895778 heartbeat IPC: 2.73947 cumulative IPC: 2.75336 (Simulation time: 0 hr 4 min 20 sec) 
Heartbeat CPU 0 instructions: 40000001 cycles: 14510488 heartbeat IPC: 2.76647 cumulative IPC: 2.75663 (Simulation time: 0 hr 5 min 44 sec) 
Heartbeat CPU 0 instructions: 50000002 cycles: 18147336 heartbeat IPC: 2.74963 cumulative IPC: 2.75523 (Simulation time: 0 hr 7 min 10 sec) 

Warmup complete CPU 0 instructions: 50000002 cycles: 18147336 (Simulation time: 0 hr 7 min 10 sec) 

Heartbeat CPU 0 instructions: 60000001 cycles: 34978104 heartbeat IPC: 0.59415 cumulative IPC: 0.59415 (Simulation time: 0 hr 9 min 1 sec) 
Heartbeat CPU 0 instructions: 70000002 cycles: 52065849 heartbeat IPC: 0.585215 cumulative IPC: 0.589648 (Simulation time: 0 hr 10 min 54 sec) 
Heartbeat CPU 0 instructions: 80000001 cycles: 68887342 heartbeat IPC: 0.594477 cumulative IPC: 0.591249 (Simulation time: 0 hr 12 min 43 sec) 
Heartbeat CPU 0 instructions: 90000001 cycles: 85924065 heartbeat IPC: 0.586967 cumulative IPC: 0.590173 (Simulation time: 0 hr 14 min 34 sec) 
Heartbeat CPU 0 instructions: 100000002 cycles: 102800906 heartbeat IPC: 0.592528 cumulative IPC: 0.590643 (Simulation time: 0 hr 16 min 20 sec) 
Finished CPU 0 instructions: 50000000 cycles: 84653570 cumulative IPC: 0.590643 (Simulation time: 0 hr 16 min 20 sec) 

ChampSim completed all CPUs

Region of Interest Statistics

CPU 0 cumulative IPC: 0.590643 instructions: 50000000 cycles: 84653570

SHEET
IPC : 0.590643

L1D TOTAL     ACCESS:   18781996  HIT:   16578459  MISS:    2203537
L1D LOAD      ACCESS:    7094336  HIT:    6389326  MISS:     705010
L1D RFO       ACCESS:    5883236  HIT:    4907692  MISS:     975544
L1D PREFETCH  ACCESS:    5804424  HIT:    5281441  MISS:     522983
L1D WRITEBACK ACCESS:          0  HIT:          0  MISS:          0
L1D PREFETCH  REQUESTED:    7136877  ISSUED:    6931550  USEFUL:     201655  USELESS:     321322
L1D AVERAGE MISS LATENCY: 177.219 cycles
L1D

SHEET
L1D-total_access : 18781996
L1D-total_hit : 16578459
L1D-total_miss : 2203537
L1D-load_access : 7094336
L1D-load_hit : 6389326
L1D-load_miss : 705010
L1D-rfo_access : 5883236
L1D-rfo_hit : 4907692
L1D-rfo_miss : 975544
L1D-prefetch_access : 5804424
L1D-prefetch_hit : 5281441
L1D-prefetch_miss : 522983
L1D-writeback_access : 0
L1D-writeback_hit : 0
L1D-writeback_miss : 0
L1D-prefetch_requested : 7136877
L1D-prefetch_issued : 6931550
L1D-prefetch_useful : 201655
L1D-prefetch_useless : 321322
L1D-Avg_miss_latency : 177.219
L1D-Morteza_fill_l2_prefetches : 0

L1I TOTAL     ACCESS:   18553500  HIT:   16066418  MISS:    2487082
L1I LOAD      ACCESS:   10015842  HIT:    9576295  MISS:     439547
L1I RFO       ACCESS:          0  HIT:          0  MISS:          0
L1I PREFETCH  ACCESS:    8537658  HIT:    6490123  MISS:    2047535
L1I WRITEBACK ACCESS:          0  HIT:          0  MISS:          0
L1I PREFETCH  REQUESTED:    9262598  ISSUED:    9251705  USEFUL:    1934520  USELESS:     112998
L1I AVERAGE MISS LATENCY: 16.2596 cycles
L1I

SHEET
L1I-total_access : 18553500
L1I-total_hit : 16066418
L1I-total_miss : 2487082
L1I-load_access : 10015842
L1I-load_hit : 9576295
L1I-load_miss : 439547
L1I-rfo_access : 0
L1I-rfo_hit : 0
L1I-rfo_miss : 0
L1I-prefetch_access : 8537658
L1I-prefetch_hit : 6490123
L1I-prefetch_miss : 2047535
L1I-writeback_access : 0
L1I-writeback_hit : 0
L1I-writeback_miss : 0
L1I-prefetch_requested : 9262598
L1I-prefetch_issued : 9251705
L1I-prefetch_useful : 1934520
L1I-prefetch_useless : 112998
L1I-Avg_miss_latency : 16.2596
L1I-Morteza_fill_l2_prefetches : 0

L2C TOTAL     ACCESS:    6838569  HIT:    4978319  MISS:    1860250
L2C LOAD      ACCESS:     681007  HIT:     422119  MISS:     258888
L2C RFO       ACCESS:     975025  HIT:      21441  MISS:     953584
L2C PREFETCH  ACCESS:    4002652  HIT:    3357157  MISS:     645495
L2C WRITEBACK ACCESS:    1179885  HIT:    1177602  MISS:       2283
L2C PREFETCH  REQUESTED:    4025195  ISSUED:    4020455  USEFUL:      25244  USELESS:     620169
L2C AVERAGE MISS LATENCY: 215.568 cycles
L2C

SHEET
L2C-total_access : 6838569
L2C-total_hit : 4978319
L2C-total_miss : 1860250
L2C-load_access : 681007
L2C-load_hit : 422119
L2C-load_miss : 258888
L2C-rfo_access : 975025
L2C-rfo_hit : 21441
L2C-rfo_miss : 953584
L2C-prefetch_access : 4002652
L2C-prefetch_hit : 3357157
L2C-prefetch_miss : 645495
L2C-writeback_access : 1179885
L2C-writeback_hit : 1177602
L2C-writeback_miss : 2283
L2C-prefetch_requested : 4025195
L2C-prefetch_issued : 4020455
L2C-prefetch_useful : 25244
L2C-prefetch_useless : 620169
L2C-Avg_miss_latency : 215.568
L2C-Morteza_fill_l2_prefetches : 990064

LLC TOTAL     ACCESS:    4061446  HIT:    2666206  MISS:    1395240
LLC LOAD      ACCESS:     258750  HIT:     182001  MISS:      76749
LLC RFO       ACCESS:     953583  HIT:     141859  MISS:     811724
LLC PREFETCH  ACCESS:    1736998  HIT:    1232272  MISS:     504726
LLC WRITEBACK ACCESS:    1112115  HIT:    1110074  MISS:       2041
LLC PREFETCH  REQUESTED:          0  ISSUED:          0  USEFUL:      27833  USELESS:     475245
LLC AVERAGE MISS LATENCY: 285.818 cycles
LLC

SHEET
LLC-total_access : 4061446
LLC-total_hit : 2666206
LLC-total_miss : 1395240
LLC-load_access : 258750
LLC-load_hit : 182001
LLC-load_miss : 76749
LLC-rfo_access : 953583
LLC-rfo_hit : 141859
LLC-rfo_miss : 811724
LLC-prefetch_access : 1736998
LLC-prefetch_hit : 1232272
LLC-prefetch_miss : 504726
LLC-writeback_access : 1112115
LLC-writeback_hit : 1110074
LLC-writeback_miss : 2041
LLC-prefetch_requested : 0
LLC-prefetch_issued : 0
LLC-prefetch_useful : 27833
LLC-prefetch_useless : 475245
LLC-Avg_miss_latency : 285.818
LLC-Morteza_fill_l2_prefetches : 897463

Major fault: 0 Minor fault: 22289



Printing Logs
statHeadFound: 1264602
statHeadMissing: 2088425
statStreamBufferHit: 10218158
statPrefetchEntryFound: 6093888
statCompactorMatch: 10816839
statStreamTrackerLookup: 13571185
statRecord: 2754346
statGetPointer: 3353027
statEnqueuePrefetch: 18372720
statPrefetchQueueIsFull: 0
StreamBufferHitRate: 0.75293
Regions' size: 1185
next_region_correct: 2220870
next_region_wrong: 532283
next_region_correct_prediction: 0.806664
statStreamBufferLookups: 135711850
statL1iLookups: 146981760
statCompactorLookups: 217138960
morteza: start

SHEET
mana_table_access_counter : 8848226
hobp_table_access_counter : 30523380
sab_access_counter : 16312046
srq_access_counter : 15633778

morteza: end
CPU 0 L1D next line prefetcher final stats

DRAM Statistics
 CHANNEL 0
 RQ ROW_BUFFER_HIT:     404065  ROW_BUFFER_MISS:     988859
 DBUS_CONGESTED:    1430289
 WQ ROW_BUFFER_HIT:     268564  ROW_BUFFER_MISS:     628476  FULL:          0

 AVG_CONGESTED_CYCLE: 6

CPU 0 Branch Prediction Accuracy: 99.8303% MPKI: 0.27836 Average ROB Occupancy at Mispredict: 219.155

Branch types
NOT_BRANCH: 41798549 83.5971%
BRANCH_DIRECT_JUMP: 445215 0.89043%
BRANCH_INDIRECT: 50481 0.100962%
BRANCH_CONDITIONAL: 5868246 11.7365%
BRANCH_DIRECT_CALL: 758228 1.51646%
BRANCH_INDIRECT_CALL: 160494 0.320988%
BRANCH_RETURN: 918718 1.83744%
BRANCH_OTHER: 0 0%

