Initialize SIGNATURE TABLE
ST_SET: 1
ST_WAY: 256
ST_TAG_BIT: 16
ST_TAG_MASK: ffff

Initialize PATTERN TABLE
PT_SET: 512
PT_WAY: 4
SIG_DELTA_BIT: 7
C_SIG_BIT: 4
C_DELTA_BIT: 4

Initialize PREFETCH FILTER
FILTER_SET: 1024
MANA initialize 
tds: 2 tdm: 2
size MANA SINGLE: 15.5 KB
size MANA NULTIPLE: 0 KB
size HOBPT: 0.703125 KB
size SRQ: 0.0644531 KB
size SABs: 0.0402832 KB
size prefetch queue: 0.453125 KB
total: 16.761 KB

*** ChampSim Multicore Out-of-Order Simulator ***

Warmup Instructions: 50000000
Simulation Instructions: 50000000
Number of CPUs: 1
LLC sets: 2048
LLC ways: 16
Off-chip DRAM Size: 4096 MB Channels: 1 Width: 64-bit Data Rate: 3200 MT/s

CPU 0 runs /home/mbaradaran/ChampSim/dpc3_traces/spec_gcc_003.champsimtrace.xz
CPU 0 L1D next line prefetcher
Heartbeat CPU 0 instructions: 10000001 cycles: 3490752 heartbeat IPC: 2.86471 cumulative IPC: 2.86471 (Simulation time: 0 hr 1 min 15 sec) 
Heartbeat CPU 0 instructions: 20000000 cycles: 6970885 heartbeat IPC: 2.87345 cumulative IPC: 2.86908 (Simulation time: 0 hr 2 min 21 sec) 
Heartbeat CPU 0 instructions: 30000002 cycles: 10413822 heartbeat IPC: 2.9045 cumulative IPC: 2.88079 (Simulation time: 0 hr 3 min 31 sec) 
Heartbeat CPU 0 instructions: 40000000 cycles: 13882399 heartbeat IPC: 2.88303 cumulative IPC: 2.88135 (Simulation time: 0 hr 4 min 36 sec) 
Heartbeat CPU 0 instructions: 50000001 cycles: 17194998 heartbeat IPC: 3.01878 cumulative IPC: 2.90782 (Simulation time: 0 hr 5 min 37 sec) 

Warmup complete CPU 0 instructions: 50000001 cycles: 17194998 (Simulation time: 0 hr 5 min 37 sec) 

Heartbeat CPU 0 instructions: 60000000 cycles: 57907829 heartbeat IPC: 0.245623 cumulative IPC: 0.245623 (Simulation time: 0 hr 8 min 18 sec) 
Heartbeat CPU 0 instructions: 70000000 cycles: 101541528 heartbeat IPC: 0.229181 cumulative IPC: 0.237117 (Simulation time: 0 hr 10 min 59 sec) 
Heartbeat CPU 0 instructions: 80000002 cycles: 145935315 heartbeat IPC: 0.225257 cumulative IPC: 0.233027 (Simulation time: 0 hr 13 min 41 sec) 
Heartbeat CPU 0 instructions: 90000002 cycles: 183399440 heartbeat IPC: 0.266922 cumulative IPC: 0.240667 (Simulation time: 0 hr 16 min 2 sec) 
Heartbeat CPU 0 instructions: 100000001 cycles: 230269782 heartbeat IPC: 0.213355 cumulative IPC: 0.234659 (Simulation time: 0 hr 18 min 51 sec) 
Finished CPU 0 instructions: 50000000 cycles: 213074784 cumulative IPC: 0.234659 (Simulation time: 0 hr 18 min 51 sec) 

ChampSim completed all CPUs

Region of Interest Statistics

CPU 0 cumulative IPC: 0.234659 instructions: 50000000 cycles: 213074784

SHEET
IPC : 0.234659

L1D TOTAL     ACCESS:   17021685  HIT:   11297278  MISS:    5724407
L1D LOAD      ACCESS:    4644245  HIT:    4261706  MISS:     382539
L1D RFO       ACCESS:    8219430  HIT:    3167745  MISS:    5051685
L1D PREFETCH  ACCESS:    4158010  HIT:    3867827  MISS:     290183
L1D WRITEBACK ACCESS:          0  HIT:          0  MISS:          0
L1D PREFETCH  REQUESTED:    4663034  ISSUED:    4604532  USEFUL:     152689  USELESS:     137674
L1D AVERAGE MISS LATENCY: 503.806 cycles
L1D

SHEET
L1D-total_access : 17021685
L1D-total_hit : 11297278
L1D-total_miss : 5724407
L1D-load_access : 4644245
L1D-load_hit : 4261706
L1D-load_miss : 382539
L1D-rfo_access : 8219430
L1D-rfo_hit : 3167745
L1D-rfo_miss : 5051685
L1D-prefetch_access : 4158010
L1D-prefetch_hit : 3867827
L1D-prefetch_miss : 290183
L1D-writeback_access : 0
L1D-writeback_hit : 0
L1D-writeback_miss : 0
L1D-prefetch_requested : 4663034
L1D-prefetch_issued : 4604532
L1D-prefetch_useful : 152689
L1D-prefetch_useless : 137674
L1D-Avg_miss_latency : 503.806
L1D-Morteza_fill_l2_prefetches : 0

L1I TOTAL     ACCESS:   18868383  HIT:   17858776  MISS:    1009607
L1I LOAD      ACCESS:   11257044  HIT:   10970472  MISS:     286572
L1I RFO       ACCESS:          0  HIT:          0  MISS:          0
L1I PREFETCH  ACCESS:    7611339  HIT:    6888304  MISS:     723035
L1I WRITEBACK ACCESS:          0  HIT:          0  MISS:          0
L1I PREFETCH  REQUESTED:    9469690  ISSUED:    9349576  USEFUL:     485305  USELESS:     237697
L1I AVERAGE MISS LATENCY: 57.4918 cycles
L1I

SHEET
L1I-total_access : 18868383
L1I-total_hit : 17858776
L1I-total_miss : 1009607
L1I-load_access : 11257044
L1I-load_hit : 10970472
L1I-load_miss : 286572
L1I-rfo_access : 0
L1I-rfo_hit : 0
L1I-rfo_miss : 0
L1I-prefetch_access : 7611339
L1I-prefetch_hit : 6888304
L1I-prefetch_miss : 723035
L1I-writeback_access : 0
L1I-writeback_hit : 0
L1I-writeback_miss : 0
L1I-prefetch_requested : 9469690
L1I-prefetch_issued : 9349576
L1I-prefetch_useful : 485305
L1I-prefetch_useless : 237697
L1I-Avg_miss_latency : 57.4918
L1I-Morteza_fill_l2_prefetches : 0

L2C TOTAL     ACCESS:   12194413  HIT:    6154570  MISS:    6039843
L2C LOAD      ACCESS:     408040  HIT:     152231  MISS:     255809
L2C RFO       ACCESS:    5049908  HIT:       6473  MISS:    5043435
L2C PREFETCH  ACCESS:    1578554  HIT:     838112  MISS:     740442
L2C WRITEBACK ACCESS:    5157911  HIT:    5157754  MISS:        157
L2C PREFETCH  REQUESTED:    2006116  ISSUED:    2005954  USEFUL:      50034  USELESS:     687251
L2C AVERAGE MISS LATENCY: 474.459 cycles
L2C

SHEET
L2C-total_access : 12194413
L2C-total_hit : 6154570
L2C-total_miss : 6039843
L2C-load_access : 408040
L2C-load_hit : 152231
L2C-load_miss : 255809
L2C-rfo_access : 5049908
L2C-rfo_hit : 6473
L2C-rfo_miss : 5043435
L2C-prefetch_access : 1578554
L2C-prefetch_hit : 838112
L2C-prefetch_miss : 740442
L2C-writeback_access : 5157911
L2C-writeback_hit : 5157754
L2C-writeback_miss : 157
L2C-prefetch_requested : 2006116
L2C-prefetch_issued : 2005954
L2C-prefetch_useful : 50034
L2C-prefetch_useless : 687251
L2C-Avg_miss_latency : 474.459
L2C-Morteza_fill_l2_prefetches : 260239

LLC TOTAL     ACCESS:   11941093  HIT:    7203719  MISS:    4737374
LLC LOAD      ACCESS:     255781  HIT:     189434  MISS:      66347
LLC RFO       ACCESS:    5043434  HIT:     617510  MISS:    4425924
LLC PREFETCH  ACCESS:    1507950  HIT:    1262847  MISS:     245103
LLC WRITEBACK ACCESS:    5133928  HIT:    5133928  MISS:          0
LLC PREFETCH  REQUESTED:          0  ISSUED:          0  USEFUL:      20393  USELESS:     224501
LLC AVERAGE MISS LATENCY: 574.032 cycles
LLC

SHEET
LLC-total_access : 11941093
LLC-total_hit : 7203719
LLC-total_miss : 4737374
LLC-load_access : 255781
LLC-load_hit : 189434
LLC-load_miss : 66347
LLC-rfo_access : 5043434
LLC-rfo_hit : 617510
LLC-rfo_miss : 4425924
LLC-prefetch_access : 1507950
LLC-prefetch_hit : 1262847
LLC-prefetch_miss : 245103
LLC-writeback_access : 5133928
LLC-writeback_hit : 5133928
LLC-writeback_miss : 0
LLC-prefetch_requested : 0
LLC-prefetch_issued : 0
LLC-prefetch_useful : 20393
LLC-prefetch_useless : 224501
LLC-Avg_miss_latency : 574.032
LLC-Morteza_fill_l2_prefetches : 758835

Major fault: 0 Minor fault: 2817



Printing Logs
statHeadFound: 1581698
statHeadMissing: 2590928
statStreamBufferHit: 5794301
statPrefetchEntryFound: 5760358
statCompactorMatch: 8676060
statStreamTrackerLookup: 9966927
statRecord: 1290867
statGetPointer: 4172626
statEnqueuePrefetch: 16883566
statPrefetchQueueIsFull: 47314
StreamBufferHitRate: 0.581353
Regions' size: 1619
next_region_correct: 744280
next_region_wrong: 544960
next_region_correct_prediction: 0.577301
statStreamBufferLookups: 99669270
statL1iLookups: 135068528
statCompactorLookups: 159470832
morteza: start

SHEET
mana_table_access_counter : 7098531
hobp_table_access_counter : 27661651
sab_access_counter : 11554659
srq_access_counter : 9650220

morteza: end
CPU 0 L1D next line prefetcher final stats

DRAM Statistics
 CHANNEL 0
 RQ ROW_BUFFER_HIT:    1432283  ROW_BUFFER_MISS:    3305053
 DBUS_CONGESTED:    8233072
 WQ ROW_BUFFER_HIT:    1194904  ROW_BUFFER_MISS:    3260084  FULL:          0

 AVG_CONGESTED_CYCLE: 6

CPU 0 Branch Prediction Accuracy: 99.665% MPKI: 0.78342 Average ROB Occupancy at Mispredict: 103.797

Branch types
NOT_BRANCH: 38305861 76.6117%
BRANCH_DIRECT_JUMP: 384281 0.768562%
BRANCH_INDIRECT: 71949 0.143898%
BRANCH_CONDITIONAL: 9879826 19.7597%
BRANCH_DIRECT_CALL: 650586 1.30117%
BRANCH_INDIRECT_CALL: 28456 0.056912%
BRANCH_RETURN: 679046 1.35809%
BRANCH_OTHER: 0 0%

