Initialize SIGNATURE TABLE
ST_SET: 1
ST_WAY: 256
ST_TAG_BIT: 16
ST_TAG_MASK: ffff

Initialize PATTERN TABLE
PT_SET: 512
PT_WAY: 4
SIG_DELTA_BIT: 7
C_SIG_BIT: 4
C_DELTA_BIT: 4

Initialize PREFETCH FILTER
FILTER_SET: 1024
MANA initialize 
tds: 2 tdm: 2
size MANA SINGLE: 15.5 KB
size MANA NULTIPLE: 0 KB
size HOBPT: 0.703125 KB
size SRQ: 0.0644531 KB
size SABs: 0.0402832 KB
size prefetch queue: 0.453125 KB
total: 16.761 KB

*** ChampSim Multicore Out-of-Order Simulator ***

Warmup Instructions: 50000000
Simulation Instructions: 50000000
Number of CPUs: 1
LLC sets: 2048
LLC ways: 16
Off-chip DRAM Size: 4096 MB Channels: 1 Width: 64-bit Data Rate: 3200 MT/s

CPU 0 runs /home/mbaradaran/ChampSim/dpc3_traces/spec_gobmk_002.champsimtrace.xz
CPU 0 L1D next line prefetcher
Heartbeat CPU 0 instructions: 10000001 cycles: 3287503 heartbeat IPC: 3.04182 cumulative IPC: 3.04182 (Simulation time: 0 hr 1 min 12 sec) 
Heartbeat CPU 0 instructions: 20000000 cycles: 6619105 heartbeat IPC: 3.00156 cumulative IPC: 3.02156 (Simulation time: 0 hr 2 min 16 sec) 
Heartbeat CPU 0 instructions: 30000000 cycles: 9957068 heartbeat IPC: 2.99584 cumulative IPC: 3.01294 (Simulation time: 0 hr 3 min 19 sec) 
Heartbeat CPU 0 instructions: 40000000 cycles: 13266508 heartbeat IPC: 3.02166 cumulative IPC: 3.01511 (Simulation time: 0 hr 4 min 24 sec) 
Heartbeat CPU 0 instructions: 50000003 cycles: 16530075 heartbeat IPC: 3.06413 cumulative IPC: 3.02479 (Simulation time: 0 hr 5 min 27 sec) 

Warmup complete CPU 0 instructions: 50000003 cycles: 16530075 (Simulation time: 0 hr 5 min 27 sec) 

Heartbeat CPU 0 instructions: 60000003 cycles: 24056952 heartbeat IPC: 1.32857 cumulative IPC: 1.32857 (Simulation time: 0 hr 6 min 14 sec) 
Heartbeat CPU 0 instructions: 70000003 cycles: 31533905 heartbeat IPC: 1.33744 cumulative IPC: 1.33299 (Simulation time: 0 hr 7 min 0 sec) 
Heartbeat CPU 0 instructions: 80000000 cycles: 38881836 heartbeat IPC: 1.36093 cumulative IPC: 1.34218 (Simulation time: 0 hr 7 min 46 sec) 
Heartbeat CPU 0 instructions: 90000002 cycles: 46527537 heartbeat IPC: 1.30792 cumulative IPC: 1.33345 (Simulation time: 0 hr 8 min 29 sec) 
Heartbeat CPU 0 instructions: 100000003 cycles: 54393573 heartbeat IPC: 1.27129 cumulative IPC: 1.32053 (Simulation time: 0 hr 9 min 14 sec) 
Finished CPU 0 instructions: 50000000 cycles: 37863498 cumulative IPC: 1.32053 (Simulation time: 0 hr 9 min 14 sec) 

ChampSim completed all CPUs

Region of Interest Statistics

CPU 0 cumulative IPC: 1.32053 instructions: 50000000 cycles: 37863498

SHEET
IPC : 1.32053

L1D TOTAL     ACCESS:   17655066  HIT:   17531925  MISS:     123141
L1D LOAD      ACCESS:    6672456  HIT:    6638237  MISS:      34219
L1D RFO       ACCESS:    4388910  HIT:    4346242  MISS:      42668
L1D PREFETCH  ACCESS:    6593700  HIT:    6547446  MISS:      46254
L1D WRITEBACK ACCESS:          0  HIT:          0  MISS:          0
L1D PREFETCH  REQUESTED:    6674817  ISSUED:    6607442  USEFUL:      17181  USELESS:      29254
L1D AVERAGE MISS LATENCY: 50.3432 cycles
L1D

SHEET
L1D-total_access : 17655066
L1D-total_hit : 17531925
L1D-total_miss : 123141
L1D-load_access : 6672456
L1D-load_hit : 6638237
L1D-load_miss : 34219
L1D-rfo_access : 4388910
L1D-rfo_hit : 4346242
L1D-rfo_miss : 42668
L1D-prefetch_access : 6593700
L1D-prefetch_hit : 6547446
L1D-prefetch_miss : 46254
L1D-writeback_access : 0
L1D-writeback_hit : 0
L1D-writeback_miss : 0
L1D-prefetch_requested : 6674817
L1D-prefetch_issued : 6607442
L1D-prefetch_useful : 17181
L1D-prefetch_useless : 29254
L1D-Avg_miss_latency : 50.3432
L1D-Morteza_fill_l2_prefetches : 0

L1I TOTAL     ACCESS:   23549966  HIT:   22677998  MISS:     871968
L1I LOAD      ACCESS:    8829992  HIT:    8628434  MISS:     201558
L1I RFO       ACCESS:          0  HIT:          0  MISS:          0
L1I PREFETCH  ACCESS:   14719974  HIT:   14049564  MISS:     670410
L1I WRITEBACK ACCESS:          0  HIT:          0  MISS:          0
L1I PREFETCH  REQUESTED:   16955343  ISSUED:   16691409  USEFUL:     449271  USELESS:     221090
L1I AVERAGE MISS LATENCY: 14.1603 cycles
L1I

SHEET
L1I-total_access : 23549966
L1I-total_hit : 22677998
L1I-total_miss : 871968
L1I-load_access : 8829992
L1I-load_hit : 8628434
L1I-load_miss : 201558
L1I-rfo_access : 0
L1I-rfo_hit : 0
L1I-rfo_miss : 0
L1I-prefetch_access : 14719974
L1I-prefetch_hit : 14049564
L1I-prefetch_miss : 670410
L1I-writeback_access : 0
L1I-writeback_hit : 0
L1I-writeback_miss : 0
L1I-prefetch_requested : 16955343
L1I-prefetch_issued : 16691409
L1I-prefetch_useful : 449271
L1I-prefetch_useless : 221090
L1I-Avg_miss_latency : 14.1603
L1I-Morteza_fill_l2_prefetches : 0

L2C TOTAL     ACCESS:    1525661  HIT:    1488226  MISS:      37435
L2C LOAD      ACCESS:     196929  HIT:     183032  MISS:      13897
L2C RFO       ACCESS:      42556  HIT:      39800  MISS:       2756
L2C PREFETCH  ACCESS:    1211967  HIT:    1191320  MISS:      20647
L2C WRITEBACK ACCESS:      74209  HIT:      74074  MISS:        135
L2C PREFETCH  REQUESTED:     849683  ISSUED:     849676  USEFUL:       2209  USELESS:      18735
L2C AVERAGE MISS LATENCY: 125.506 cycles
L2C

SHEET
L2C-total_access : 1525661
L2C-total_hit : 1488226
L2C-total_miss : 37435
L2C-load_access : 196929
L2C-load_hit : 183032
L2C-load_miss : 13897
L2C-rfo_access : 42556
L2C-rfo_hit : 39800
L2C-rfo_miss : 2756
L2C-prefetch_access : 1211967
L2C-prefetch_hit : 1191320
L2C-prefetch_miss : 20647
L2C-writeback_access : 74209
L2C-writeback_hit : 74074
L2C-writeback_miss : 135
L2C-prefetch_requested : 849683
L2C-prefetch_issued : 849676
L2C-prefetch_useful : 2209
L2C-prefetch_useless : 18735
L2C-Avg_miss_latency : 125.506
L2C-Morteza_fill_l2_prefetches : 460724

LLC TOTAL     ACCESS:     117994  HIT:      85911  MISS:      32083
LLC LOAD      ACCESS:      13897  HIT:       5150  MISS:       8747
LLC RFO       ACCESS:       2756  HIT:       1139  MISS:       1617
LLC PREFETCH  ACCESS:      83353  HIT:      62179  MISS:      21174
LLC WRITEBACK ACCESS:      17988  HIT:      17443  MISS:        545
LLC PREFETCH  REQUESTED:          0  ISSUED:          0  USEFUL:       2204  USELESS:      18637
LLC AVERAGE MISS LATENCY: 183.299 cycles
LLC

SHEET
LLC-total_access : 117994
LLC-total_hit : 85911
LLC-total_miss : 32083
LLC-load_access : 13897
LLC-load_hit : 5150
LLC-load_miss : 8747
LLC-rfo_access : 2756
LLC-rfo_hit : 1139
LLC-rfo_miss : 1617
LLC-prefetch_access : 83353
LLC-prefetch_hit : 62179
LLC-prefetch_miss : 21174
LLC-writeback_access : 17988
LLC-writeback_hit : 17443
LLC-writeback_miss : 545
LLC-prefetch_requested : 0
LLC-prefetch_issued : 0
LLC-prefetch_useful : 2204
LLC-prefetch_useless : 18637
LLC-Avg_miss_latency : 183.299
LLC-Morteza_fill_l2_prefetches : 50165

Major fault: 0 Minor fault: 2776



Printing Logs
statHeadFound: 2475325
statHeadMissing: 962445
statStreamBufferHit: 9392201
statPrefetchEntryFound: 8762653
statCompactorMatch: 10822094
statStreamTrackerLookup: 12829971
statRecord: 2007877
statGetPointer: 3437770
statEnqueuePrefetch: 32137286
statPrefetchQueueIsFull: 91235
StreamBufferHitRate: 0.732052
Regions' size: 3435
next_region_correct: 1072697
next_region_wrong: 931737
next_region_correct_prediction: 0.535162
statStreamBufferLookups: 128299710
statL1iLookups: 257098288
statCompactorLookups: 205279536
morteza: start

SHEET
mana_table_access_counter : 10861757
hobp_table_access_counter : 30636474
sab_access_counter : 18154854
srq_access_counter : 13855392

morteza: end
CPU 0 L1D next line prefetcher final stats

DRAM Statistics
 CHANNEL 0
 RQ ROW_BUFFER_HIT:       2554  ROW_BUFFER_MISS:      28984
 DBUS_CONGESTED:      15983
 WQ ROW_BUFFER_HIT:        767  ROW_BUFFER_MISS:      12826  FULL:          0

 AVG_CONGESTED_CYCLE: 4

CPU 0 Branch Prediction Accuracy: 93.9974% MPKI: 10.2447 Average ROB Occupancy at Mispredict: 39.3364

Branch types
NOT_BRANCH: 41466058 82.9321%
BRANCH_DIRECT_JUMP: 464313 0.928626%
BRANCH_INDIRECT: 32 6.4e-05%
BRANCH_CONDITIONAL: 7069454 14.1389%
BRANCH_DIRECT_CALL: 499587 0.999174%
BRANCH_INDIRECT_CALL: 342 0.000684%
BRANCH_RETURN: 499906 0.999812%
BRANCH_OTHER: 0 0%

