Initialize SIGNATURE TABLE
ST_SET: 1
ST_WAY: 256
ST_TAG_BIT: 16
ST_TAG_MASK: ffff

Initialize PATTERN TABLE
PT_SET: 512
PT_WAY: 4
SIG_DELTA_BIT: 7
C_SIG_BIT: 4
C_DELTA_BIT: 4

Initialize PREFETCH FILTER
FILTER_SET: 1024
MANA initialize 
tds: 2 tdm: 2
size MANA SINGLE: 15.5 KB
size MANA NULTIPLE: 0 KB
size HOBPT: 0.703125 KB
size SRQ: 0.0644531 KB
size SABs: 0.0402832 KB
size prefetch queue: 0.453125 KB
total: 16.761 KB

*** ChampSim Multicore Out-of-Order Simulator ***

Warmup Instructions: 50000000
Simulation Instructions: 50000000
Number of CPUs: 1
LLC sets: 2048
LLC ways: 16
Off-chip DRAM Size: 4096 MB Channels: 1 Width: 64-bit Data Rate: 3200 MT/s

CPU 0 runs /home/mbaradaran/ChampSim/dpc3_traces/spec_gobmk_001.champsimtrace.xz
CPU 0 L1D next line prefetcher
Heartbeat CPU 0 instructions: 10000003 cycles: 3507789 heartbeat IPC: 2.8508 cumulative IPC: 2.8508 (Simulation time: 0 hr 1 min 8 sec) 
Heartbeat CPU 0 instructions: 20000002 cycles: 6988891 heartbeat IPC: 2.87265 cumulative IPC: 2.86168 (Simulation time: 0 hr 2 min 13 sec) 
Heartbeat CPU 0 instructions: 30000002 cycles: 10508213 heartbeat IPC: 2.84146 cumulative IPC: 2.85491 (Simulation time: 0 hr 3 min 17 sec) 
Heartbeat CPU 0 instructions: 40000001 cycles: 14027405 heartbeat IPC: 2.84156 cumulative IPC: 2.85156 (Simulation time: 0 hr 4 min 20 sec) 
Heartbeat CPU 0 instructions: 50000001 cycles: 17567502 heartbeat IPC: 2.82478 cumulative IPC: 2.84616 (Simulation time: 0 hr 5 min 22 sec) 

Warmup complete CPU 0 instructions: 50000001 cycles: 17567502 (Simulation time: 0 hr 5 min 22 sec) 

Heartbeat CPU 0 instructions: 60000000 cycles: 26415540 heartbeat IPC: 1.13019 cumulative IPC: 1.13019 (Simulation time: 0 hr 6 min 13 sec) 
Heartbeat CPU 0 instructions: 70000002 cycles: 34936906 heartbeat IPC: 1.17352 cumulative IPC: 1.15145 (Simulation time: 0 hr 7 min 2 sec) 
Heartbeat CPU 0 instructions: 80000003 cycles: 43844802 heartbeat IPC: 1.1226 cumulative IPC: 1.14167 (Simulation time: 0 hr 7 min 50 sec) 
Heartbeat CPU 0 instructions: 90000001 cycles: 52422607 heartbeat IPC: 1.1658 cumulative IPC: 1.14761 (Simulation time: 0 hr 8 min 37 sec) 
Heartbeat CPU 0 instructions: 100000003 cycles: 61327920 heartbeat IPC: 1.12293 cumulative IPC: 1.14259 (Simulation time: 0 hr 9 min 25 sec) 
Finished CPU 0 instructions: 50000002 cycles: 43760418 cumulative IPC: 1.14259 (Simulation time: 0 hr 9 min 25 sec) 

ChampSim completed all CPUs

Region of Interest Statistics

CPU 0 cumulative IPC: 1.14259 instructions: 50000002 cycles: 43760418

SHEET
IPC : 1.14259

L1D TOTAL     ACCESS:   18004895  HIT:   17625348  MISS:     379547
L1D LOAD      ACCESS:    7220238  HIT:    7085183  MISS:     135055
L1D RFO       ACCESS:    3703126  HIT:    3598584  MISS:     104542
L1D PREFETCH  ACCESS:    7081531  HIT:    6941581  MISS:     139950
L1D WRITEBACK ACCESS:          0  HIT:          0  MISS:          0
L1D PREFETCH  REQUESTED:    7225453  ISSUED:    7142740  USEFUL:      45242  USELESS:      94713
L1D AVERAGE MISS LATENCY: 33.62 cycles
L1D

SHEET
L1D-total_access : 18004895
L1D-total_hit : 17625348
L1D-total_miss : 379547
L1D-load_access : 7220238
L1D-load_hit : 7085183
L1D-load_miss : 135055
L1D-rfo_access : 3703126
L1D-rfo_hit : 3598584
L1D-rfo_miss : 104542
L1D-prefetch_access : 7081531
L1D-prefetch_hit : 6941581
L1D-prefetch_miss : 139950
L1D-writeback_access : 0
L1D-writeback_hit : 0
L1D-writeback_miss : 0
L1D-prefetch_requested : 7225453
L1D-prefetch_issued : 7142740
L1D-prefetch_useful : 45242
L1D-prefetch_useless : 94713
L1D-Avg_miss_latency : 33.62
L1D-Morteza_fill_l2_prefetches : 0

L1I TOTAL     ACCESS:   20020103  HIT:   19396808  MISS:     623295
L1I LOAD      ACCESS:    8929859  HIT:    8783551  MISS:     146308
L1I RFO       ACCESS:          0  HIT:          0  MISS:          0
L1I PREFETCH  ACCESS:   11090244  HIT:   10613257  MISS:     476987
L1I WRITEBACK ACCESS:          0  HIT:          0  MISS:          0
L1I PREFETCH  REQUESTED:   12835289  ISSUED:   12680687  USEFUL:     322045  USELESS:     154925
L1I AVERAGE MISS LATENCY: 14.9742 cycles
L1I

SHEET
L1I-total_access : 20020103
L1I-total_hit : 19396808
L1I-total_miss : 623295
L1I-load_access : 8929859
L1I-load_hit : 8783551
L1I-load_miss : 146308
L1I-rfo_access : 0
L1I-rfo_hit : 0
L1I-rfo_miss : 0
L1I-prefetch_access : 11090244
L1I-prefetch_hit : 10613257
L1I-prefetch_miss : 476987
L1I-writeback_access : 0
L1I-writeback_hit : 0
L1I-writeback_miss : 0
L1I-prefetch_requested : 12835289
L1I-prefetch_issued : 12680687
L1I-prefetch_useful : 322045
L1I-prefetch_useless : 154925
L1I-Avg_miss_latency : 14.9742
L1I-Morteza_fill_l2_prefetches : 0

L2C TOTAL     ACCESS:    1543918  HIT:    1419795  MISS:     124123
L2C LOAD      ACCESS:     230694  HIT:     195084  MISS:      35610
L2C RFO       ACCESS:     104239  HIT:      70253  MISS:      33986
L2C PREFETCH  ACCESS:    1069677  HIT:    1015220  MISS:      54457
L2C WRITEBACK ACCESS:     139308  HIT:     139238  MISS:         70
L2C PREFETCH  REQUESTED:     876408  ISSUED:     876340  USEFUL:       4662  USELESS:      50017
L2C AVERAGE MISS LATENCY: 65.7485 cycles
L2C

SHEET
L2C-total_access : 1543918
L2C-total_hit : 1419795
L2C-total_miss : 124123
L2C-load_access : 230694
L2C-load_hit : 195084
L2C-load_miss : 35610
L2C-rfo_access : 104239
L2C-rfo_hit : 70253
L2C-rfo_miss : 33986
L2C-prefetch_access : 1069677
L2C-prefetch_hit : 1015220
L2C-prefetch_miss : 54457
L2C-writeback_access : 139308
L2C-writeback_hit : 139238
L2C-writeback_miss : 70
L2C-prefetch_requested : 876408
L2C-prefetch_issued : 876340
L2C-prefetch_useful : 4662
L2C-prefetch_useless : 50017
L2C-Avg_miss_latency : 65.7485
L2C-Morteza_fill_l2_prefetches : 408266

LLC TOTAL     ACCESS:     285116  HIT:     248915  MISS:      36201
LLC LOAD      ACCESS:      35606  HIT:      27331  MISS:       8275
LLC RFO       ACCESS:      33986  HIT:      27108  MISS:       6878
LLC PREFETCH  ACCESS:     170737  HIT:     149991  MISS:      20746
LLC WRITEBACK ACCESS:      44787  HIT:      44485  MISS:        302
LLC PREFETCH  REQUESTED:          0  ISSUED:          0  USEFUL:       1392  USELESS:      17855
LLC AVERAGE MISS LATENCY: 178.586 cycles
LLC

SHEET
LLC-total_access : 285116
LLC-total_hit : 248915
LLC-total_miss : 36201
LLC-load_access : 35606
LLC-load_hit : 27331
LLC-load_miss : 8275
LLC-rfo_access : 33986
LLC-rfo_hit : 27108
LLC-rfo_miss : 6878
LLC-prefetch_access : 170737
LLC-prefetch_hit : 149991
LLC-prefetch_miss : 20746
LLC-writeback_access : 44787
LLC-writeback_hit : 44485
LLC-writeback_miss : 302
LLC-prefetch_requested : 0
LLC-prefetch_issued : 0
LLC-prefetch_useful : 1392
LLC-prefetch_useless : 17855
LLC-Avg_miss_latency : 178.586
LLC-Morteza_fill_l2_prefetches : 106509

Major fault: 0 Minor fault: 4156



Printing Logs
statHeadFound: 1898398
statHeadMissing: 1431299
statStreamBufferHit: 9493666
statPrefetchEntryFound: 6773065
statCompactorMatch: 11391937
statStreamTrackerLookup: 12823363
statRecord: 1431426
statGetPointer: 3329697
statEnqueuePrefetch: 24258693
statPrefetchQueueIsFull: 44221
StreamBufferHitRate: 0.740341
Regions' size: 3339
next_region_correct: 755824
next_region_wrong: 672255
next_region_correct_prediction: 0.529259
statStreamBufferLookups: 128233630
statL1iLookups: 194069544
statCompactorLookups: 205173808
morteza: start

SHEET
mana_table_access_counter : 8248704
hobp_table_access_counter : 25861777
sab_access_counter : 16266731
srq_access_counter : 13122484

morteza: end
CPU 0 L1D next line prefetcher final stats

DRAM Statistics
 CHANNEL 0
 RQ ROW_BUFFER_HIT:       4746  ROW_BUFFER_MISS:      31152
 DBUS_CONGESTED:      20886
 WQ ROW_BUFFER_HIT:       1453  ROW_BUFFER_MISS:      14790  FULL:          0

 AVG_CONGESTED_CYCLE: 4

CPU 0 Branch Prediction Accuracy: 94.7729% MPKI: 9.72684 Average ROB Occupancy at Mispredict: 53.4459

Branch types
NOT_BRANCH: 40695383 81.3908%
BRANCH_DIRECT_JUMP: 422107 0.844214%
BRANCH_INDIRECT: 65 0.00013%
BRANCH_CONDITIONAL: 8105005 16.21%
BRANCH_DIRECT_CALL: 374913 0.749826%
BRANCH_INDIRECT_CALL: 13657 0.027314%
BRANCH_RETURN: 388556 0.777112%
BRANCH_OTHER: 0 0%

