Initialize SIGNATURE TABLE
ST_SET: 1
ST_WAY: 256
ST_TAG_BIT: 16
ST_TAG_MASK: ffff

Initialize PATTERN TABLE
PT_SET: 512
PT_WAY: 4
SIG_DELTA_BIT: 7
C_SIG_BIT: 4
C_DELTA_BIT: 4

Initialize PREFETCH FILTER
FILTER_SET: 1024
MANA initialize 
tds: 2 tdm: 2
size MANA SINGLE: 15.5 KB
size MANA NULTIPLE: 0 KB
size HOBPT: 0.703125 KB
size SRQ: 0.0644531 KB
size SABs: 0.0402832 KB
size prefetch queue: 0.453125 KB
total: 16.761 KB

*** ChampSim Multicore Out-of-Order Simulator ***

Warmup Instructions: 50000000
Simulation Instructions: 50000000
Number of CPUs: 1
LLC sets: 2048
LLC ways: 16
Off-chip DRAM Size: 4096 MB Channels: 1 Width: 64-bit Data Rate: 3200 MT/s

CPU 0 runs /home/mbaradaran/ChampSim/dpc3_traces/spec_gcc_001.champsimtrace.xz
CPU 0 L1D next line prefetcher
Heartbeat CPU 0 instructions: 10000003 cycles: 3219374 heartbeat IPC: 3.10619 cumulative IPC: 3.10619 (Simulation time: 0 hr 1 min 23 sec) 
Heartbeat CPU 0 instructions: 20000002 cycles: 6463978 heartbeat IPC: 3.08204 cumulative IPC: 3.09407 (Simulation time: 0 hr 2 min 38 sec) 
Heartbeat CPU 0 instructions: 30000000 cycles: 9664593 heartbeat IPC: 3.1244 cumulative IPC: 3.10411 (Simulation time: 0 hr 3 min 57 sec) 
Heartbeat CPU 0 instructions: 40000001 cycles: 12906215 heartbeat IPC: 3.08488 cumulative IPC: 3.09928 (Simulation time: 0 hr 5 min 15 sec) 
Heartbeat CPU 0 instructions: 50000001 cycles: 16146626 heartbeat IPC: 3.08603 cumulative IPC: 3.09662 (Simulation time: 0 hr 6 min 34 sec) 

Warmup complete CPU 0 instructions: 50000001 cycles: 16146626 (Simulation time: 0 hr 6 min 34 sec) 

Heartbeat CPU 0 instructions: 60000000 cycles: 23999098 heartbeat IPC: 1.27348 cumulative IPC: 1.27348 (Simulation time: 0 hr 7 min 39 sec) 
Heartbeat CPU 0 instructions: 70000002 cycles: 31898045 heartbeat IPC: 1.26599 cumulative IPC: 1.26973 (Simulation time: 0 hr 8 min 46 sec) 
Heartbeat CPU 0 instructions: 80000000 cycles: 39438293 heartbeat IPC: 1.32622 cumulative IPC: 1.28801 (Simulation time: 0 hr 9 min 49 sec) 
Heartbeat CPU 0 instructions: 90000001 cycles: 47320133 heartbeat IPC: 1.26874 cumulative IPC: 1.28314 (Simulation time: 0 hr 10 min 53 sec) 
Heartbeat CPU 0 instructions: 100000000 cycles: 55528057 heartbeat IPC: 1.21833 cumulative IPC: 1.26963 (Simulation time: 0 hr 11 min 59 sec) 
Finished CPU 0 instructions: 50000000 cycles: 39381435 cumulative IPC: 1.26963 (Simulation time: 0 hr 11 min 59 sec) 

ChampSim completed all CPUs

Region of Interest Statistics

CPU 0 cumulative IPC: 1.26963 instructions: 50000000 cycles: 39381435

SHEET
IPC : 1.26963

L1D TOTAL     ACCESS:   19340612  HIT:   18235453  MISS:    1105159
L1D LOAD      ACCESS:    7239987  HIT:    6760863  MISS:     479124
L1D RFO       ACCESS:    5118042  HIT:    5038507  MISS:      79535
L1D PREFETCH  ACCESS:    6982583  HIT:    6436083  MISS:     546500
L1D WRITEBACK ACCESS:          0  HIT:          0  MISS:          0
L1D PREFETCH  REQUESTED:    7283525  ISSUED:    7185583  USEFUL:     276249  USELESS:     270264
L1D AVERAGE MISS LATENCY: 25.358 cycles
L1D

SHEET
L1D-total_access : 19340612
L1D-total_hit : 18235453
L1D-total_miss : 1105159
L1D-load_access : 7239987
L1D-load_hit : 6760863
L1D-load_miss : 479124
L1D-rfo_access : 5118042
L1D-rfo_hit : 5038507
L1D-rfo_miss : 79535
L1D-prefetch_access : 6982583
L1D-prefetch_hit : 6436083
L1D-prefetch_miss : 546500
L1D-writeback_access : 0
L1D-writeback_hit : 0
L1D-writeback_miss : 0
L1D-prefetch_requested : 7283525
L1D-prefetch_issued : 7185583
L1D-prefetch_useful : 276249
L1D-prefetch_useless : 270264
L1D-Avg_miss_latency : 25.358
L1D-Morteza_fill_l2_prefetches : 0

L1I TOTAL     ACCESS:   22965077  HIT:   22623785  MISS:     341292
L1I LOAD      ACCESS:    9270199  HIT:    9172086  MISS:      98113
L1I RFO       ACCESS:          0  HIT:          0  MISS:          0
L1I PREFETCH  ACCESS:   13694878  HIT:   13451699  MISS:     243179
L1I WRITEBACK ACCESS:          0  HIT:          0  MISS:          0
L1I PREFETCH  REQUESTED:   15255981  ISSUED:   15229975  USEFUL:     166299  USELESS:      76878
L1I AVERAGE MISS LATENCY: 22.6057 cycles
L1I

SHEET
L1I-total_access : 22965077
L1I-total_hit : 22623785
L1I-total_miss : 341292
L1I-load_access : 9270199
L1I-load_hit : 9172086
L1I-load_miss : 98113
L1I-rfo_access : 0
L1I-rfo_hit : 0
L1I-rfo_miss : 0
L1I-prefetch_access : 13694878
L1I-prefetch_hit : 13451699
L1I-prefetch_miss : 243179
L1I-writeback_access : 0
L1I-writeback_hit : 0
L1I-writeback_miss : 0
L1I-prefetch_requested : 15255981
L1I-prefetch_issued : 15229975
L1I-prefetch_useful : 166299
L1I-prefetch_useless : 76878
L1I-Avg_miss_latency : 22.6057
L1I-Morteza_fill_l2_prefetches : 0

L2C TOTAL     ACCESS:    2488960  HIT:    2242931  MISS:     246029
L2C LOAD      ACCESS:     530358  HIT:     445805  MISS:      84553
L2C RFO       ACCESS:      75007  HIT:      37048  MISS:      37959
L2C PREFETCH  ACCESS:    1629834  HIT:    1506776  MISS:     123058
L2C WRITEBACK ACCESS:     253761  HIT:     253302  MISS:        459
L2C PREFETCH  REQUESTED:    1663313  ISSUED:    1663153  USEFUL:      30708  USELESS:      91588
L2C AVERAGE MISS LATENCY: 63.0172 cycles
L2C

SHEET
L2C-total_access : 2488960
L2C-total_hit : 2242931
L2C-total_miss : 246029
L2C-load_access : 530358
L2C-load_hit : 445805
L2C-load_miss : 84553
L2C-rfo_access : 75007
L2C-rfo_hit : 37048
L2C-rfo_miss : 37959
L2C-prefetch_access : 1629834
L2C-prefetch_hit : 1506776
L2C-prefetch_miss : 123058
L2C-writeback_access : 253761
L2C-writeback_hit : 253302
L2C-writeback_miss : 459
L2C-prefetch_requested : 1663313
L2C-prefetch_issued : 1663153
L2C-prefetch_useful : 30708
L2C-prefetch_useless : 91588
L2C-Avg_miss_latency : 63.0172
L2C-Morteza_fill_l2_prefetches : 795531

LLC TOTAL     ACCESS:     618173  HIT:     547578  MISS:      70595
LLC LOAD      ACCESS:      84372  HIT:      72779  MISS:      11593
LLC RFO       ACCESS:      37958  HIT:      17398  MISS:      20560
LLC PREFETCH  ACCESS:     406464  HIT:     368977  MISS:      37487
LLC WRITEBACK ACCESS:      89379  HIT:      88424  MISS:        955
LLC PREFETCH  REQUESTED:          0  ISSUED:          0  USEFUL:      13616  USELESS:      23294
LLC AVERAGE MISS LATENCY: 189.523 cycles
LLC

SHEET
LLC-total_access : 618173
LLC-total_hit : 547578
LLC-total_miss : 70595
LLC-load_access : 84372
LLC-load_hit : 72779
LLC-load_miss : 11593
LLC-rfo_access : 37958
LLC-rfo_hit : 17398
LLC-rfo_miss : 20560
LLC-prefetch_access : 406464
LLC-prefetch_hit : 368977
LLC-prefetch_miss : 37487
LLC-writeback_access : 89379
LLC-writeback_hit : 88424
LLC-writeback_miss : 955
LLC-prefetch_requested : 0
LLC-prefetch_issued : 0
LLC-prefetch_useful : 13616
LLC-prefetch_useless : 23294
LLC-Avg_miss_latency : 189.523
LLC-Morteza_fill_l2_prefetches : 261348

Major fault: 0 Minor fault: 6865



Printing Logs
statHeadFound: 2573334
statHeadMissing: 2161568
statStreamBufferHit: 10485316
statPrefetchEntryFound: 9736700
statCompactorMatch: 13119947
statStreamTrackerLookup: 15220218
statRecord: 2100271
statGetPointer: 4734902
statEnqueuePrefetch: 29351130
statPrefetchQueueIsFull: 24085
StreamBufferHitRate: 0.688907
Regions' size: 13157
next_region_correct: 1328124
next_region_wrong: 758982
next_region_correct_prediction: 0.636347
statStreamBufferLookups: 152202180
statL1iLookups: 234809040
statCompactorLookups: 243523488
morteza: start

SHEET
mana_table_access_counter : 11861048
hobp_table_access_counter : 37101489
sab_access_counter : 20222016
srq_access_counter : 14716558

morteza: end
CPU 0 L1D next line prefetcher final stats

DRAM Statistics
 CHANNEL 0
 RQ ROW_BUFFER_HIT:      19340  ROW_BUFFER_MISS:      50299
 DBUS_CONGESTED:      36871
 WQ ROW_BUFFER_HIT:       4577  ROW_BUFFER_MISS:      22445  FULL:          0

 AVG_CONGESTED_CYCLE: 6

CPU 0 Branch Prediction Accuracy: 95.8872% MPKI: 9.67286 Average ROB Occupancy at Mispredict: 66.344

Branch types
NOT_BRANCH: 38240102 76.4802%
BRANCH_DIRECT_JUMP: 653296 1.30659%
BRANCH_INDIRECT: 37098 0.074196%
BRANCH_CONDITIONAL: 8897819 17.7956%
BRANCH_DIRECT_CALL: 992620 1.98524%
BRANCH_INDIRECT_CALL: 93046 0.186092%
BRANCH_RETURN: 1085674 2.17135%
BRANCH_OTHER: 0 0%

