Initialize SIGNATURE TABLE
ST_SET: 1
ST_WAY: 256
ST_TAG_BIT: 16
ST_TAG_MASK: ffff

Initialize PATTERN TABLE
PT_SET: 512
PT_WAY: 4
SIG_DELTA_BIT: 7
C_SIG_BIT: 4
C_DELTA_BIT: 4

Initialize PREFETCH FILTER
FILTER_SET: 1024
MANA initialize 
tds: 2 tdm: 2
size MANA SINGLE: 15.5 KB
size MANA NULTIPLE: 0 KB
size HOBPT: 0.703125 KB
size SRQ: 0.0644531 KB
size SABs: 0.0402832 KB
size prefetch queue: 0.453125 KB
total: 16.761 KB

*** ChampSim Multicore Out-of-Order Simulator ***

Warmup Instructions: 50000000
Simulation Instructions: 50000000
Number of CPUs: 1
LLC sets: 2048
LLC ways: 16
Off-chip DRAM Size: 4096 MB Channels: 1 Width: 64-bit Data Rate: 3200 MT/s

CPU 0 runs /home/mbaradaran/ChampSim/dpc3_traces/spec_perlbench_001.champsimtrace.xz
CPU 0 L1D next line prefetcher
Heartbeat CPU 0 instructions: 10000000 cycles: 3275869 heartbeat IPC: 3.05263 cumulative IPC: 3.05263 (Simulation time: 0 hr 1 min 13 sec) 
Heartbeat CPU 0 instructions: 20000000 cycles: 6540596 heartbeat IPC: 3.06304 cumulative IPC: 3.05783 (Simulation time: 0 hr 2 min 26 sec) 
Heartbeat CPU 0 instructions: 30000002 cycles: 9857342 heartbeat IPC: 3.015 cumulative IPC: 3.04342 (Simulation time: 0 hr 3 min 38 sec) 
Heartbeat CPU 0 instructions: 40000002 cycles: 13112813 heartbeat IPC: 3.07175 cumulative IPC: 3.05045 (Simulation time: 0 hr 4 min 46 sec) 
Heartbeat CPU 0 instructions: 50000001 cycles: 16386538 heartbeat IPC: 3.05462 cumulative IPC: 3.05129 (Simulation time: 0 hr 5 min 51 sec) 

Warmup complete CPU 0 instructions: 50000001 cycles: 16386538 (Simulation time: 0 hr 5 min 51 sec) 

Heartbeat CPU 0 instructions: 60000001 cycles: 24675677 heartbeat IPC: 1.2064 cumulative IPC: 1.2064 (Simulation time: 0 hr 6 min 52 sec) 
Heartbeat CPU 0 instructions: 70000003 cycles: 32882482 heartbeat IPC: 1.2185 cumulative IPC: 1.21242 (Simulation time: 0 hr 7 min 56 sec) 
Heartbeat CPU 0 instructions: 80000000 cycles: 41300742 heartbeat IPC: 1.18789 cumulative IPC: 1.20413 (Simulation time: 0 hr 8 min 57 sec) 
Heartbeat CPU 0 instructions: 90000000 cycles: 47008237 heartbeat IPC: 1.75208 cumulative IPC: 1.30626 (Simulation time: 0 hr 9 min 46 sec) 
Heartbeat CPU 0 instructions: 100000002 cycles: 52869929 heartbeat IPC: 1.70599 cumulative IPC: 1.37049 (Simulation time: 0 hr 10 min 35 sec) 
Finished CPU 0 instructions: 50000001 cycles: 36483391 cumulative IPC: 1.37049 (Simulation time: 0 hr 10 min 35 sec) 

ChampSim completed all CPUs

Region of Interest Statistics

CPU 0 cumulative IPC: 1.37049 instructions: 50000001 cycles: 36483391

SHEET
IPC : 1.37049

L1D TOTAL     ACCESS:   20714425  HIT:   20299315  MISS:     415110
L1D LOAD      ACCESS:    7186289  HIT:    6972644  MISS:     213645
L1D RFO       ACCESS:    6542863  HIT:    6524364  MISS:      18499
L1D PREFETCH  ACCESS:    6985273  HIT:    6802307  MISS:     182966
L1D WRITEBACK ACCESS:          0  HIT:          0  MISS:          0
L1D PREFETCH  REQUESTED:    7202147  ISSUED:    7085853  USEFUL:      55291  USELESS:     127670
L1D AVERAGE MISS LATENCY: 57.6748 cycles
L1D

SHEET
L1D-total_access : 20714425
L1D-total_hit : 20299315
L1D-total_miss : 415110
L1D-load_access : 7186289
L1D-load_hit : 6972644
L1D-load_miss : 213645
L1D-rfo_access : 6542863
L1D-rfo_hit : 6524364
L1D-rfo_miss : 18499
L1D-prefetch_access : 6985273
L1D-prefetch_hit : 6802307
L1D-prefetch_miss : 182966
L1D-writeback_access : 0
L1D-writeback_hit : 0
L1D-writeback_miss : 0
L1D-prefetch_requested : 7202147
L1D-prefetch_issued : 7085853
L1D-prefetch_useful : 55291
L1D-prefetch_useless : 127670
L1D-Avg_miss_latency : 57.6748
L1D-Morteza_fill_l2_prefetches : 0

L1I TOTAL     ACCESS:   22026672  HIT:   21603415  MISS:     423257
L1I LOAD      ACCESS:    9133951  HIT:    9011439  MISS:     122512
L1I RFO       ACCESS:          0  HIT:          0  MISS:          0
L1I PREFETCH  ACCESS:   12892721  HIT:   12591976  MISS:     300745
L1I WRITEBACK ACCESS:          0  HIT:          0  MISS:          0
L1I PREFETCH  REQUESTED:   13977114  ISSUED:   13961116  USEFUL:     225782  USELESS:      74979
L1I AVERAGE MISS LATENCY: 17.4499 cycles
L1I

SHEET
L1I-total_access : 22026672
L1I-total_hit : 21603415
L1I-total_miss : 423257
L1I-load_access : 9133951
L1I-load_hit : 9011439
L1I-load_miss : 122512
L1I-rfo_access : 0
L1I-rfo_hit : 0
L1I-rfo_miss : 0
L1I-prefetch_access : 12892721
L1I-prefetch_hit : 12591976
L1I-prefetch_miss : 300745
L1I-writeback_access : 0
L1I-writeback_hit : 0
L1I-writeback_miss : 0
L1I-prefetch_requested : 13977114
L1I-prefetch_issued : 13961116
L1I-prefetch_useful : 225782
L1I-prefetch_useless : 74979
L1I-Avg_miss_latency : 17.4499
L1I-Morteza_fill_l2_prefetches : 0

L2C TOTAL     ACCESS:    1184299  HIT:    1018235  MISS:     166064
L2C LOAD      ACCESS:     300236  HIT:     219047  MISS:      81189
L2C RFO       ACCESS:      18266  HIT:      12915  MISS:       5351
L2C PREFETCH  ACCESS:     786840  HIT:     707644  MISS:      79196
L2C WRITEBACK ACCESS:      78957  HIT:      78629  MISS:        328
L2C PREFETCH  REQUESTED:     772986  ISSUED:     772962  USEFUL:       6180  USELESS:      72962
L2C AVERAGE MISS LATENCY: 119.482 cycles
L2C

SHEET
L2C-total_access : 1184299
L2C-total_hit : 1018235
L2C-total_miss : 166064
L2C-load_access : 300236
L2C-load_hit : 219047
L2C-load_miss : 81189
L2C-rfo_access : 18266
L2C-rfo_hit : 12915
L2C-rfo_miss : 5351
L2C-prefetch_access : 786840
L2C-prefetch_hit : 707644
L2C-prefetch_miss : 79196
L2C-writeback_access : 78957
L2C-writeback_hit : 78629
L2C-writeback_miss : 328
L2C-prefetch_requested : 772986
L2C-prefetch_issued : 772962
L2C-prefetch_useful : 6180
L2C-prefetch_useless : 72962
L2C-Avg_miss_latency : 119.482
L2C-Morteza_fill_l2_prefetches : 269143

LLC TOTAL     ACCESS:     385154  HIT:     242860  MISS:     142294
LLC LOAD      ACCESS:      81183  HIT:      32798  MISS:      48385
LLC RFO       ACCESS:       5351  HIT:       2296  MISS:       3055
LLC PREFETCH  ACCESS:     273524  HIT:     183174  MISS:      90350
LLC WRITEBACK ACCESS:      25096  HIT:      24592  MISS:        504
LLC PREFETCH  REQUESTED:          0  ISSUED:          0  USEFUL:      15178  USELESS:      75206
LLC AVERAGE MISS LATENCY: 160.024 cycles
LLC

SHEET
LLC-total_access : 385154
LLC-total_hit : 242860
LLC-total_miss : 142294
LLC-load_access : 81183
LLC-load_hit : 32798
LLC-load_miss : 48385
LLC-rfo_access : 5351
LLC-rfo_hit : 2296
LLC-rfo_miss : 3055
LLC-prefetch_access : 273524
LLC-prefetch_hit : 183174
LLC-prefetch_miss : 90350
LLC-writeback_access : 25096
LLC-writeback_hit : 24592
LLC-writeback_miss : 504
LLC-prefetch_requested : 0
LLC-prefetch_issued : 0
LLC-prefetch_useful : 15178
LLC-prefetch_useless : 75206
LLC-Avg_miss_latency : 160.024
LLC-Morteza_fill_l2_prefetches : 146542

Major fault: 0 Minor fault: 6364



Printing Logs
statHeadFound: 2347948
statHeadMissing: 428991
statStreamBufferHit: 11510050
statPrefetchEntryFound: 10109470
statCompactorMatch: 11166997
statStreamTrackerLookup: 14286989
statRecord: 3119992
statGetPointer: 2776939
statEnqueuePrefetch: 27961711
statPrefetchQueueIsFull: 815
StreamBufferHitRate: 0.805632
Regions' size: 2611
next_region_correct: 2529103
next_region_wrong: 588270
next_region_correct_prediction: 0.811293
statStreamBufferLookups: 142869890
statL1iLookups: 223693688
statCompactorLookups: 228591824
morteza: start

SHEET
mana_table_access_counter : 13230269
hobp_table_access_counter : 33697995
sab_access_counter : 21619520
srq_access_counter : 15780083

morteza: end
CPU 0 L1D next line prefetcher final stats

DRAM Statistics
 CHANNEL 0
 RQ ROW_BUFFER_HIT:      32441  ROW_BUFFER_MISS:     109349
 DBUS_CONGESTED:      58975
 WQ ROW_BUFFER_HIT:       4231  ROW_BUFFER_MISS:      13099  FULL:          0

 AVG_CONGESTED_CYCLE: 4

CPU 0 Branch Prediction Accuracy: 98.7418% MPKI: 2.47758 Average ROB Occupancy at Mispredict: 77.5324

Branch types
NOT_BRANCH: 40154100 80.3082%
BRANCH_DIRECT_JUMP: 817094 1.63419%
BRANCH_INDIRECT: 303787 0.607574%
BRANCH_CONDITIONAL: 7492103 14.9842%
BRANCH_DIRECT_CALL: 471777 0.943554%
BRANCH_INDIRECT_CALL: 144546 0.289092%
BRANCH_RETURN: 616324 1.23265%
BRANCH_OTHER: 0 0%

