Initialize SIGNATURE TABLE
ST_SET: 1
ST_WAY: 256
ST_TAG_BIT: 16
ST_TAG_MASK: ffff

Initialize PATTERN TABLE
PT_SET: 512
PT_WAY: 4
SIG_DELTA_BIT: 7
C_SIG_BIT: 4
C_DELTA_BIT: 4

Initialize PREFETCH FILTER
FILTER_SET: 1024
MANA initialize 
tds: 2 tdm: 2
size MANA SINGLE: 15.5 KB
size MANA NULTIPLE: 0 KB
size HOBPT: 0.703125 KB
size SRQ: 0.0644531 KB
size SABs: 0.0402832 KB
size prefetch queue: 0.453125 KB
total: 16.761 KB

*** ChampSim Multicore Out-of-Order Simulator ***

Warmup Instructions: 50000000
Simulation Instructions: 50000000
Number of CPUs: 1
LLC sets: 2048
LLC ways: 16
Off-chip DRAM Size: 4096 MB Channels: 1 Width: 64-bit Data Rate: 3200 MT/s

CPU 0 runs /home/mbaradaran/ChampSim/dpc3_traces/spec_gcc_002.champsimtrace.xz
CPU 0 L1D next line prefetcher
Heartbeat CPU 0 instructions: 10000002 cycles: 3587054 heartbeat IPC: 2.7878 cumulative IPC: 2.7878 (Simulation time: 0 hr 1 min 14 sec) 
Heartbeat CPU 0 instructions: 20000000 cycles: 7182626 heartbeat IPC: 2.7812 cumulative IPC: 2.7845 (Simulation time: 0 hr 2 min 25 sec) 
Heartbeat CPU 0 instructions: 30000000 cycles: 10782970 heartbeat IPC: 2.77751 cumulative IPC: 2.78216 (Simulation time: 0 hr 3 min 41 sec) 
Heartbeat CPU 0 instructions: 40000000 cycles: 14346867 heartbeat IPC: 2.80592 cumulative IPC: 2.78807 (Simulation time: 0 hr 4 min 52 sec) 
Heartbeat CPU 0 instructions: 50000002 cycles: 17851535 heartbeat IPC: 2.85334 cumulative IPC: 2.80088 (Simulation time: 0 hr 6 min 0 sec) 

Warmup complete CPU 0 instructions: 50000002 cycles: 17851535 (Simulation time: 0 hr 6 min 0 sec) 

Heartbeat CPU 0 instructions: 60000001 cycles: 57862752 heartbeat IPC: 0.24993 cumulative IPC: 0.24993 (Simulation time: 0 hr 8 min 26 sec) 
Heartbeat CPU 0 instructions: 70000001 cycles: 90025457 heartbeat IPC: 0.310919 cumulative IPC: 0.277108 (Simulation time: 0 hr 10 min 36 sec) 
Heartbeat CPU 0 instructions: 80000002 cycles: 139250406 heartbeat IPC: 0.203149 cumulative IPC: 0.247119 (Simulation time: 0 hr 13 min 19 sec) 
Heartbeat CPU 0 instructions: 90000001 cycles: 184129374 heartbeat IPC: 0.222822 cumulative IPC: 0.240561 (Simulation time: 0 hr 15 min 50 sec) 
Heartbeat CPU 0 instructions: 100000000 cycles: 216208221 heartbeat IPC: 0.311732 cumulative IPC: 0.252071 (Simulation time: 0 hr 17 min 52 sec) 
Finished CPU 0 instructions: 50000002 cycles: 198356694 cumulative IPC: 0.252071 (Simulation time: 0 hr 17 min 52 sec) 

ChampSim completed all CPUs

Region of Interest Statistics

CPU 0 cumulative IPC: 0.252071 instructions: 50000002 cycles: 198356694

SHEET
IPC : 0.252071

L1D TOTAL     ACCESS:   18324709  HIT:   13091009  MISS:    5233700
L1D LOAD      ACCESS:    6401010  HIT:    5344108  MISS:    1056902
L1D RFO       ACCESS:    7034014  HIT:    3433243  MISS:    3600771
L1D PREFETCH  ACCESS:    4889685  HIT:    4313658  MISS:     576027
L1D WRITEBACK ACCESS:          0  HIT:          0  MISS:          0
L1D PREFETCH  REQUESTED:    6421515  ISSUED:    6352485  USEFUL:     416261  USELESS:     159982
L1D AVERAGE MISS LATENCY: 334.067 cycles
L1D

SHEET
L1D-total_access : 18324709
L1D-total_hit : 13091009
L1D-total_miss : 5233700
L1D-load_access : 6401010
L1D-load_hit : 5344108
L1D-load_miss : 1056902
L1D-rfo_access : 7034014
L1D-rfo_hit : 3433243
L1D-rfo_miss : 3600771
L1D-prefetch_access : 4889685
L1D-prefetch_hit : 4313658
L1D-prefetch_miss : 576027
L1D-writeback_access : 0
L1D-writeback_hit : 0
L1D-writeback_miss : 0
L1D-prefetch_requested : 6421515
L1D-prefetch_issued : 6352485
L1D-prefetch_useful : 416261
L1D-prefetch_useless : 159982
L1D-Avg_miss_latency : 334.067
L1D-Morteza_fill_l2_prefetches : 0

L1I TOTAL     ACCESS:   19936567  HIT:   19123200  MISS:     813367
L1I LOAD      ACCESS:   12072159  HIT:   11846774  MISS:     225385
L1I RFO       ACCESS:          0  HIT:          0  MISS:          0
L1I PREFETCH  ACCESS:    7864408  HIT:    7276426  MISS:     587982
L1I WRITEBACK ACCESS:          0  HIT:          0  MISS:          0
L1I PREFETCH  REQUESTED:    9491791  ISSUED:    9361272  USEFUL:     397224  USELESS:     190737
L1I AVERAGE MISS LATENCY: 63.9724 cycles
L1I

SHEET
L1I-total_access : 19936567
L1I-total_hit : 19123200
L1I-total_miss : 813367
L1I-load_access : 12072159
L1I-load_hit : 11846774
L1I-load_miss : 225385
L1I-rfo_access : 0
L1I-rfo_hit : 0
L1I-rfo_miss : 0
L1I-prefetch_access : 7864408
L1I-prefetch_hit : 7276426
L1I-prefetch_miss : 587982
L1I-writeback_access : 0
L1I-writeback_hit : 0
L1I-writeback_miss : 0
L1I-prefetch_requested : 9491791
L1I-prefetch_issued : 9361272
L1I-prefetch_useful : 397224
L1I-prefetch_useless : 190737
L1I-Avg_miss_latency : 63.9724
L1I-Morteza_fill_l2_prefetches : 0

L2C TOTAL     ACCESS:   10142929  HIT:    4843249  MISS:    5299680
L2C LOAD      ACCESS:     412031  HIT:     197422  MISS:     214609
L2C RFO       ACCESS:    3599121  HIT:      12447  MISS:    3586674
L2C PREFETCH  ACCESS:    2406270  HIT:     908025  MISS:    1498245
L2C WRITEBACK ACCESS:    3725507  HIT:    3725355  MISS:        152
L2C PREFETCH  REQUESTED:    3009701  ISSUED:    3009416  USEFUL:      44783  USELESS:    1453644
L2C AVERAGE MISS LATENCY: 344.44 cycles
L2C

SHEET
L2C-total_access : 10142929
L2C-total_hit : 4843249
L2C-total_miss : 5299680
L2C-load_access : 412031
L2C-load_hit : 197422
L2C-load_miss : 214609
L2C-rfo_access : 3599121
L2C-rfo_hit : 12447
L2C-rfo_miss : 3586674
L2C-prefetch_access : 2406270
L2C-prefetch_hit : 908025
L2C-prefetch_miss : 1498245
L2C-writeback_access : 3725507
L2C-writeback_hit : 3725355
L2C-writeback_miss : 152
L2C-prefetch_requested : 3009701
L2C-prefetch_issued : 3009416
L2C-prefetch_useful : 44783
L2C-prefetch_useless : 1453644
L2C-Avg_miss_latency : 344.44
L2C-Morteza_fill_l2_prefetches : 272975

LLC TOTAL     ACCESS:    9940738  HIT:    6094401  MISS:    3846337
LLC LOAD      ACCESS:     214405  HIT:     128751  MISS:      85654
LLC RFO       ACCESS:    3586675  HIT:     600838  MISS:    2985837
LLC PREFETCH  ACCESS:    2473823  HIT:    1698977  MISS:     774846
LLC WRITEBACK ACCESS:    3665835  HIT:    3665835  MISS:          0
LLC PREFETCH  REQUESTED:          0  ISSUED:          0  USEFUL:     155041  USELESS:     615015
LLC AVERAGE MISS LATENCY: 455.372 cycles
LLC

SHEET
LLC-total_access : 9940738
LLC-total_hit : 6094401
LLC-total_miss : 3846337
LLC-load_access : 214405
LLC-load_hit : 128751
LLC-load_miss : 85654
LLC-rfo_access : 3586676
LLC-rfo_hit : 600838
LLC-rfo_miss : 2985838
LLC-prefetch_access : 2473823
LLC-prefetch_hit : 1698977
LLC-prefetch_miss : 774846
LLC-writeback_access : 3665835
LLC-writeback_hit : 3665835
LLC-writeback_miss : 0
LLC-prefetch_requested : 0
LLC-prefetch_issued : 0
LLC-prefetch_useful : 155041
LLC-prefetch_useless : 615015
LLC-Avg_miss_latency : 455.372
LLC-Morteza_fill_l2_prefetches : 931428

Major fault: 0 Minor fault: 4152



Printing Logs
statHeadFound: 1684098
statHeadMissing: 5075257
statStreamBufferHit: 6345631
statPrefetchEntryFound: 6109488
statCompactorMatch: 11835634
statStreamTrackerLookup: 13104986
statRecord: 1269352
statGetPointer: 6759355
statEnqueuePrefetch: 17823659
statPrefetchQueueIsFull: 47647
StreamBufferHitRate: 0.484215
Regions' size: 1589
next_region_correct: 745902
next_region_wrong: 521853
next_region_correct_prediction: 0.588364
statStreamBufferLookups: 131049860
statL1iLookups: 142589272
statCompactorLookups: 209679776
morteza: start

SHEET
mana_table_access_counter : 7426479
hobp_table_access_counter : 38271972
sab_access_counter : 12455119
srq_access_counter : 12667949

morteza: end
CPU 0 L1D next line prefetcher final stats

DRAM Statistics
 CHANNEL 0
 RQ ROW_BUFFER_HIT:    1011955  ROW_BUFFER_MISS:    2831519
 DBUS_CONGESTED:    5526419
 WQ ROW_BUFFER_HIT:     948772  ROW_BUFFER_MISS:    2215062  FULL:          0

 AVG_CONGESTED_CYCLE: 6

CPU 0 Branch Prediction Accuracy: 99.5987% MPKI: 0.82446 Average ROB Occupancy at Mispredict: 118.838

Branch types
NOT_BRANCH: 39726805 79.4536%
BRANCH_DIRECT_JUMP: 391438 0.782876%
BRANCH_INDIRECT: 62076 0.124152%
BRANCH_CONDITIONAL: 8421541 16.8431%
BRANCH_DIRECT_CALL: 672962 1.34592%
BRANCH_INDIRECT_CALL: 26115 0.05223%
BRANCH_RETURN: 699082 1.39816%
BRANCH_OTHER: 0 0%

