Initialize SIGNATURE TABLE
ST_SET: 1
ST_WAY: 256
ST_TAG_BIT: 16
ST_TAG_MASK: ffff

Initialize PATTERN TABLE
PT_SET: 512
PT_WAY: 4
SIG_DELTA_BIT: 7
C_SIG_BIT: 4
C_DELTA_BIT: 4

Initialize PREFETCH FILTER
FILTER_SET: 1024

*** ChampSim Multicore Out-of-Order Simulator ***

Warmup Instructions: 50000000
Simulation Instructions: 50000000
Number of CPUs: 1
LLC sets: 2048
LLC ways: 16
Off-chip DRAM Size: 4096 MB Channels: 1 Width: 64-bit Data Rate: 3200 MT/s

CPU 0 runs /home/mbaradaran/ChampSim/dpc3_traces/client_004.champsimtrace.xz
CPU 0 L1D next line prefetcher
Heartbeat CPU 0 instructions: 10000000 cycles: 3592657 heartbeat IPC: 2.78346 cumulative IPC: 2.78346 (Simulation time: 0 hr 1 min 21 sec) 
Heartbeat CPU 0 instructions: 20000003 cycles: 7057312 heartbeat IPC: 2.88629 cumulative IPC: 2.83394 (Simulation time: 0 hr 2 min 42 sec) 
Heartbeat CPU 0 instructions: 30000000 cycles: 10648294 heartbeat IPC: 2.78475 cumulative IPC: 2.81735 (Simulation time: 0 hr 4 min 11 sec) 
Heartbeat CPU 0 instructions: 40000003 cycles: 14328978 heartbeat IPC: 2.71689 cumulative IPC: 2.79155 (Simulation time: 0 hr 5 min 42 sec) 
Heartbeat CPU 0 instructions: 50000001 cycles: 17847899 heartbeat IPC: 2.84178 cumulative IPC: 2.80145 (Simulation time: 0 hr 7 min 13 sec) 

Warmup complete CPU 0 instructions: 50000001 cycles: 17847899 (Simulation time: 0 hr 7 min 13 sec) 

Heartbeat CPU 0 instructions: 60000002 cycles: 26703539 heartbeat IPC: 1.12922 cumulative IPC: 1.12922 (Simulation time: 0 hr 8 min 25 sec) 
Heartbeat CPU 0 instructions: 70000001 cycles: 35266921 heartbeat IPC: 1.16776 cumulative IPC: 1.14817 (Simulation time: 0 hr 9 min 47 sec) 
Heartbeat CPU 0 instructions: 80000002 cycles: 44981350 heartbeat IPC: 1.0294 cumulative IPC: 1.10565 (Simulation time: 0 hr 11 min 5 sec) 
Heartbeat CPU 0 instructions: 90000000 cycles: 53809654 heartbeat IPC: 1.13272 cumulative IPC: 1.11229 (Simulation time: 0 hr 12 min 26 sec) 
Heartbeat CPU 0 instructions: 100000002 cycles: 62718048 heartbeat IPC: 1.12254 cumulative IPC: 1.11433 (Simulation time: 0 hr 13 min 37 sec) 
Finished CPU 0 instructions: 50000001 cycles: 44870149 cumulative IPC: 1.11433 (Simulation time: 0 hr 13 min 37 sec) 

ChampSim completed all CPUs

Region of Interest Statistics

CPU 0 cumulative IPC: 1.11433 instructions: 50000001 cycles: 44870149

SHEET
IPC : 1.11433

L1D TOTAL     ACCESS:   22256532  HIT:   21367148  MISS:     889384
L1D LOAD      ACCESS:    8857257  HIT:    8463511  MISS:     393746
L1D RFO       ACCESS:    4830509  HIT:    4709446  MISS:     121063
L1D PREFETCH  ACCESS:    8568766  HIT:    8194191  MISS:     374575
L1D WRITEBACK ACCESS:          0  HIT:          0  MISS:          0
L1D PREFETCH  REQUESTED:    8894795  ISSUED:    8736553  USEFUL:     135807  USELESS:     238776
L1D AVERAGE MISS LATENCY: 28.7127 cycles
L1D

SHEET
L1D-total_access : 22256532
L1D-total_hit : 21367148
L1D-total_miss : 889384
L1D-load_access : 8857257
L1D-load_hit : 8463511
L1D-load_miss : 393746
L1D-rfo_access : 4830509
L1D-rfo_hit : 4709446
L1D-rfo_miss : 121063
L1D-prefetch_access : 8568766
L1D-prefetch_hit : 8194191
L1D-prefetch_miss : 374575
L1D-writeback_access : 0
L1D-writeback_hit : 0
L1D-writeback_miss : 0
L1D-prefetch_requested : 8894795
L1D-prefetch_issued : 8736553
L1D-prefetch_useful : 135807
L1D-prefetch_useless : 238776
L1D-Avg_miss_latency : 28.7127
L1D-Morteza_fill_l2_prefetches : 0

L1I TOTAL     ACCESS:    9392134  HIT:    8892221  MISS:     499913
L1I LOAD      ACCESS:    9392134  HIT:    8892221  MISS:     499913
L1I RFO       ACCESS:          0  HIT:          0  MISS:          0
L1I PREFETCH  ACCESS:          0  HIT:          0  MISS:          0
L1I WRITEBACK ACCESS:          0  HIT:          0  MISS:          0
L1I PREFETCH  REQUESTED:          0  ISSUED:          0  USEFUL:          0  USELESS:          0
L1I AVERAGE MISS LATENCY: 27.9547 cycles
L1I

SHEET
L1I-total_access : 9392134
L1I-total_hit : 8892221
L1I-total_miss : 499913
L1I-load_access : 9392134
L1I-load_hit : 8892221
L1I-load_miss : 499913
L1I-rfo_access : 0
L1I-rfo_hit : 0
L1I-rfo_miss : 0
L1I-prefetch_access : 0
L1I-prefetch_hit : 0
L1I-prefetch_miss : 0
L1I-writeback_access : 0
L1I-writeback_hit : 0
L1I-writeback_miss : 0
L1I-prefetch_requested : 0
L1I-prefetch_issued : 0
L1I-prefetch_useful : 0
L1I-prefetch_useless : 0
L1I-Avg_miss_latency : 27.9547
L1I-Morteza_fill_l2_prefetches : 0

L2C TOTAL     ACCESS:    2313203  HIT:    2044671  MISS:     268532
L2C LOAD      ACCESS:     875651  HIT:     730782  MISS:     144869
L2C RFO       ACCESS:     117259  HIT:      47913  MISS:      69346
L2C PREFETCH  ACCESS:    1098173  HIT:    1044329  MISS:      53844
L2C WRITEBACK ACCESS:     222120  HIT:     221647  MISS:        473
L2C PREFETCH  REQUESTED:    1288058  ISSUED:    1288032  USEFUL:      15596  USELESS:      37583
L2C AVERAGE MISS LATENCY: 74.1112 cycles
L2C

SHEET
L2C-total_access : 2313203
L2C-total_hit : 2044671
L2C-total_miss : 268532
L2C-load_access : 875651
L2C-load_hit : 730782
L2C-load_miss : 144869
L2C-rfo_access : 117259
L2C-rfo_hit : 47913
L2C-rfo_miss : 69346
L2C-prefetch_access : 1098173
L2C-prefetch_hit : 1044329
L2C-prefetch_miss : 53844
L2C-writeback_access : 222120
L2C-writeback_hit : 221647
L2C-writeback_miss : 473
L2C-prefetch_requested : 1288058
L2C-prefetch_issued : 1288032
L2C-prefetch_useful : 15596
L2C-prefetch_useless : 37583
L2C-Avg_miss_latency : 74.1112
L2C-Morteza_fill_l2_prefetches : 706459

LLC TOTAL     ACCESS:     648321  HIT:     523049  MISS:     125272
LLC LOAD      ACCESS:     144771  HIT:     111674  MISS:      33097
LLC RFO       ACCESS:      69345  HIT:      39770  MISS:      29575
LLC PREFETCH  ACCESS:     337200  HIT:     274870  MISS:      62330
LLC WRITEBACK ACCESS:      97005  HIT:      96735  MISS:        270
LLC PREFETCH  REQUESTED:          0  ISSUED:          0  USEFUL:      27783  USELESS:      36892
LLC AVERAGE MISS LATENCY: 161.896 cycles
LLC

SHEET
LLC-total_access : 648321
LLC-total_hit : 523049
LLC-total_miss : 125272
LLC-load_access : 144771
LLC-load_hit : 111674
LLC-load_miss : 33097
LLC-rfo_access : 69345
LLC-rfo_hit : 39770
LLC-rfo_miss : 29575
LLC-prefetch_access : 337200
LLC-prefetch_hit : 274870
LLC-prefetch_miss : 62330
LLC-writeback_access : 97005
LLC-writeback_hit : 96735
LLC-writeback_miss : 270
LLC-prefetch_requested : 0
LLC-prefetch_issued : 0
LLC-prefetch_useful : 27783
LLC-prefetch_useless : 36892
LLC-Avg_miss_latency : 161.896
LLC-Morteza_fill_l2_prefetches : 236245

Major fault: 0 Minor fault: 3976
CPU 0 L1D next line prefetcher final stats

DRAM Statistics
 CHANNEL 0
 RQ ROW_BUFFER_HIT:      30558  ROW_BUFFER_MISS:      94437
 DBUS_CONGESTED:      51942
 WQ ROW_BUFFER_HIT:       9827  ROW_BUFFER_MISS:      32446  FULL:          0

 AVG_CONGESTED_CYCLE: 5

CPU 0 Branch Prediction Accuracy: 94.1242% MPKI: 11.6089 Average ROB Occupancy at Mispredict: 49.4962

Branch types
NOT_BRANCH: 40121072 80.2421%
BRANCH_DIRECT_JUMP: 644555 1.28911%
BRANCH_INDIRECT: 201946 0.403892%
BRANCH_CONDITIONAL: 7003556 14.0071%
BRANCH_DIRECT_CALL: 564821 1.12964%
BRANCH_INDIRECT_CALL: 445012 0.890024%
BRANCH_RETURN: 1018716 2.03743%
BRANCH_OTHER: 0 0%

