Initialize SIGNATURE TABLE
ST_SET: 1
ST_WAY: 256
ST_TAG_BIT: 16
ST_TAG_MASK: ffff

Initialize PATTERN TABLE
PT_SET: 512
PT_WAY: 4
SIG_DELTA_BIT: 7
C_SIG_BIT: 4
C_DELTA_BIT: 4

Initialize PREFETCH FILTER
FILTER_SET: 1024

*** ChampSim Multicore Out-of-Order Simulator ***

Warmup Instructions: 50000000
Simulation Instructions: 50000000
Number of CPUs: 1
LLC sets: 2048
LLC ways: 16
Off-chip DRAM Size: 4096 MB Channels: 1 Width: 64-bit Data Rate: 3200 MT/s

CPU 0 runs /home/mbaradaran/ChampSim/dpc3_traces/server_025.champsimtrace.xz
CPU 0 L1D next line prefetcher
Heartbeat CPU 0 instructions: 10000003 cycles: 3534383 heartbeat IPC: 2.82935 cumulative IPC: 2.82935 (Simulation time: 0 hr 1 min 36 sec) 
Heartbeat CPU 0 instructions: 20000000 cycles: 7075498 heartbeat IPC: 2.82397 cumulative IPC: 2.82666 (Simulation time: 0 hr 3 min 8 sec) 
Heartbeat CPU 0 instructions: 30000001 cycles: 10608891 heartbeat IPC: 2.83014 cumulative IPC: 2.82782 (Simulation time: 0 hr 4 min 42 sec) 
Heartbeat CPU 0 instructions: 40000003 cycles: 14148094 heartbeat IPC: 2.8255 cumulative IPC: 2.82724 (Simulation time: 0 hr 6 min 14 sec) 
Heartbeat CPU 0 instructions: 50000001 cycles: 17685885 heartbeat IPC: 2.82662 cumulative IPC: 2.82711 (Simulation time: 0 hr 7 min 46 sec) 

Warmup complete CPU 0 instructions: 50000001 cycles: 17685885 (Simulation time: 0 hr 7 min 46 sec) 

Heartbeat CPU 0 instructions: 60000002 cycles: 28489640 heartbeat IPC: 0.925604 cumulative IPC: 0.925604 (Simulation time: 0 hr 9 min 2 sec) 
Heartbeat CPU 0 instructions: 70000000 cycles: 39516071 heartbeat IPC: 0.906912 cumulative IPC: 0.916163 (Simulation time: 0 hr 10 min 11 sec) 
Heartbeat CPU 0 instructions: 80000000 cycles: 50359153 heartbeat IPC: 0.922247 cumulative IPC: 0.918182 (Simulation time: 0 hr 11 min 19 sec) 
Heartbeat CPU 0 instructions: 90000001 cycles: 59995598 heartbeat IPC: 1.03773 cumulative IPC: 0.945409 (Simulation time: 0 hr 12 min 33 sec) 
Heartbeat CPU 0 instructions: 100000001 cycles: 68504172 heartbeat IPC: 1.17529 cumulative IPC: 0.983898 (Simulation time: 0 hr 13 min 46 sec) 
Finished CPU 0 instructions: 50000000 cycles: 50818287 cumulative IPC: 0.983898 (Simulation time: 0 hr 13 min 46 sec) 

ChampSim completed all CPUs

Region of Interest Statistics

CPU 0 cumulative IPC: 0.983898 instructions: 50000000 cycles: 50818287

SHEET
IPC : 0.983898

L1D TOTAL     ACCESS:   22306851  HIT:   20879101  MISS:    1427750
L1D LOAD      ACCESS:    8072387  HIT:    7465152  MISS:     607235
L1D RFO       ACCESS:    6454545  HIT:    6205416  MISS:     249129
L1D PREFETCH  ACCESS:    7779919  HIT:    7208533  MISS:     571386
L1D WRITEBACK ACCESS:          0  HIT:          0  MISS:          0
L1D PREFETCH  REQUESTED:    8114408  ISSUED:    7953918  USEFUL:     142829  USELESS:     428552
L1D AVERAGE MISS LATENCY: 22.4031 cycles
L1D

SHEET
L1D-total_access : 22306851
L1D-total_hit : 20879101
L1D-total_miss : 1427750
L1D-load_access : 8072387
L1D-load_hit : 7465152
L1D-load_miss : 607235
L1D-rfo_access : 6454545
L1D-rfo_hit : 6205416
L1D-rfo_miss : 249129
L1D-prefetch_access : 7779919
L1D-prefetch_hit : 7208533
L1D-prefetch_miss : 571386
L1D-writeback_access : 0
L1D-writeback_hit : 0
L1D-writeback_miss : 0
L1D-prefetch_requested : 8114408
L1D-prefetch_issued : 7953918
L1D-prefetch_useful : 142829
L1D-prefetch_useless : 428552
L1D-Avg_miss_latency : 22.4031
L1D-Morteza_fill_l2_prefetches : 0

L1I TOTAL     ACCESS:    9319476  HIT:    6891859  MISS:    2427617
L1I LOAD      ACCESS:    9319476  HIT:    6891859  MISS:    2427617
L1I RFO       ACCESS:          0  HIT:          0  MISS:          0
L1I PREFETCH  ACCESS:          0  HIT:          0  MISS:          0
L1I WRITEBACK ACCESS:          0  HIT:          0  MISS:          0
L1I PREFETCH  REQUESTED:          0  ISSUED:          0  USEFUL:          0  USELESS:          0
L1I AVERAGE MISS LATENCY: 18.6106 cycles
L1I

SHEET
L1I-total_access : 9319476
L1I-total_hit : 6891859
L1I-total_miss : 2427617
L1I-load_access : 9319476
L1I-load_hit : 6891859
L1I-load_miss : 2427617
L1I-rfo_access : 0
L1I-rfo_hit : 0
L1I-rfo_miss : 0
L1I-prefetch_access : 0
L1I-prefetch_hit : 0
L1I-prefetch_miss : 0
L1I-writeback_access : 0
L1I-writeback_hit : 0
L1I-writeback_miss : 0
L1I-prefetch_requested : 0
L1I-prefetch_issued : 0
L1I-prefetch_useful : 0
L1I-prefetch_useless : 0
L1I-Avg_miss_latency : 18.6106
L1I-Morteza_fill_l2_prefetches : 0

L2C TOTAL     ACCESS:    6185871  HIT:    5543633  MISS:     642238
L2C LOAD      ACCESS:    2995940  HIT:    2539804  MISS:     456136
L2C RFO       ACCESS:     246846  HIT:     171899  MISS:      74947
L2C PREFETCH  ACCESS:    2446331  HIT:    2338500  MISS:     107831
L2C WRITEBACK ACCESS:     496754  HIT:     493430  MISS:       3324
L2C PREFETCH  REQUESTED:    3517568  ISSUED:    3517328  USEFUL:       9649  USELESS:      98121
L2C AVERAGE MISS LATENCY: 35.5999 cycles
L2C

SHEET
L2C-total_access : 6185871
L2C-total_hit : 5543633
L2C-total_miss : 642238
L2C-load_access : 2995940
L2C-load_hit : 2539804
L2C-load_miss : 456136
L2C-rfo_access : 246846
L2C-rfo_hit : 171899
L2C-rfo_miss : 74947
L2C-prefetch_access : 2446331
L2C-prefetch_hit : 2338500
L2C-prefetch_miss : 107831
L2C-writeback_access : 496754
L2C-writeback_hit : 493430
L2C-writeback_miss : 3324
L2C-prefetch_requested : 3517568
L2C-prefetch_issued : 3517328
L2C-prefetch_useful : 9649
L2C-prefetch_useless : 98121
L2C-Avg_miss_latency : 35.5999
L2C-Morteza_fill_l2_prefetches : 1843524

LLC TOTAL     ACCESS:    1937343  HIT:    1909404  MISS:      27939
LLC LOAD      ACCESS:     455919  HIT:     451757  MISS:       4162
LLC RFO       ACCESS:      74946  HIT:      64191  MISS:      10755
LLC PREFETCH  ACCESS:    1282068  HIT:    1269275  MISS:      12793
LLC WRITEBACK ACCESS:     124410  HIT:     124181  MISS:        229
LLC PREFETCH  REQUESTED:          0  ISSUED:          0  USEFUL:       1442  USELESS:      12053
LLC AVERAGE MISS LATENCY: 175.829 cycles
LLC

SHEET
LLC-total_access : 1937343
LLC-total_hit : 1909404
LLC-total_miss : 27939
LLC-load_access : 455919
LLC-load_hit : 451757
LLC-load_miss : 4162
LLC-rfo_access : 74946
LLC-rfo_hit : 64191
LLC-rfo_miss : 10755
LLC-prefetch_access : 1282068
LLC-prefetch_hit : 1269275
LLC-prefetch_miss : 12793
LLC-writeback_access : 124410
LLC-writeback_hit : 124181
LLC-writeback_miss : 229
LLC-prefetch_requested : 0
LLC-prefetch_issued : 0
LLC-prefetch_useful : 1442
LLC-prefetch_useless : 12053
LLC-Avg_miss_latency : 175.829
LLC-Morteza_fill_l2_prefetches : 1173676

Major fault: 0 Minor fault: 2457
CPU 0 L1D next line prefetcher final stats

DRAM Statistics
 CHANNEL 0
 RQ ROW_BUFFER_HIT:       9348  ROW_BUFFER_MISS:      18354
 DBUS_CONGESTED:      18332
 WQ ROW_BUFFER_HIT:       1247  ROW_BUFFER_MISS:      11040  FULL:          0

 AVG_CONGESTED_CYCLE: 6

CPU 0 Branch Prediction Accuracy: 99.8142% MPKI: 0.34676 Average ROB Occupancy at Mispredict: 106.92

Branch types
NOT_BRANCH: 40668661 81.3373%
BRANCH_DIRECT_JUMP: 531697 1.06339%
BRANCH_INDIRECT: 199023 0.398046%
BRANCH_CONDITIONAL: 6211453 12.4229%
BRANCH_DIRECT_CALL: 1010905 2.02181%
BRANCH_INDIRECT_CALL: 183501 0.367002%
BRANCH_RETURN: 1194406 2.38881%
BRANCH_OTHER: 0 0%

