Initialize SIGNATURE TABLE
ST_SET: 1
ST_WAY: 256
ST_TAG_BIT: 16
ST_TAG_MASK: ffff

Initialize PATTERN TABLE
PT_SET: 512
PT_WAY: 4
SIG_DELTA_BIT: 7
C_SIG_BIT: 4
C_DELTA_BIT: 4

Initialize PREFETCH FILTER
FILTER_SET: 1024

*** ChampSim Multicore Out-of-Order Simulator ***

Warmup Instructions: 50000000
Simulation Instructions: 50000000
Number of CPUs: 1
LLC sets: 2048
LLC ways: 16
Off-chip DRAM Size: 4096 MB Channels: 1 Width: 64-bit Data Rate: 3200 MT/s

CPU 0 runs /home/mbaradaran/ChampSim/dpc3_traces/server_018.champsimtrace.xz
CPU 0 L1D next line prefetcher
Heartbeat CPU 0 instructions: 10000003 cycles: 3621908 heartbeat IPC: 2.76098 cumulative IPC: 2.76098 (Simulation time: 0 hr 1 min 40 sec) 
Heartbeat CPU 0 instructions: 20000001 cycles: 7248697 heartbeat IPC: 2.75726 cumulative IPC: 2.75912 (Simulation time: 0 hr 3 min 9 sec) 
Heartbeat CPU 0 instructions: 30000003 cycles: 10727789 heartbeat IPC: 2.87431 cumulative IPC: 2.79648 (Simulation time: 0 hr 4 min 42 sec) 
Heartbeat CPU 0 instructions: 40000000 cycles: 14243968 heartbeat IPC: 2.844 cumulative IPC: 2.80821 (Simulation time: 0 hr 6 min 27 sec) 
Heartbeat CPU 0 instructions: 50000003 cycles: 17866743 heartbeat IPC: 2.76032 cumulative IPC: 2.7985 (Simulation time: 0 hr 8 min 16 sec) 

Warmup complete CPU 0 instructions: 50000003 cycles: 17866743 (Simulation time: 0 hr 8 min 16 sec) 

Heartbeat CPU 0 instructions: 60000000 cycles: 37485402 heartbeat IPC: 0.509719 cumulative IPC: 0.509719 (Simulation time: 0 hr 10 min 29 sec) 
Heartbeat CPU 0 instructions: 70000001 cycles: 57160982 heartbeat IPC: 0.508244 cumulative IPC: 0.50898 (Simulation time: 0 hr 12 min 47 sec) 
Heartbeat CPU 0 instructions: 80000001 cycles: 76790457 heartbeat IPC: 0.509438 cumulative IPC: 0.509133 (Simulation time: 0 hr 14 min 52 sec) 
Heartbeat CPU 0 instructions: 90000002 cycles: 96334947 heartbeat IPC: 0.511653 cumulative IPC: 0.509761 (Simulation time: 0 hr 16 min 51 sec) 
Heartbeat CPU 0 instructions: 100000001 cycles: 115797077 heartbeat IPC: 0.513818 cumulative IPC: 0.510567 (Simulation time: 0 hr 18 min 58 sec) 
Finished CPU 0 instructions: 50000002 cycles: 97930335 cumulative IPC: 0.510567 (Simulation time: 0 hr 18 min 58 sec) 

ChampSim completed all CPUs

Region of Interest Statistics

CPU 0 cumulative IPC: 0.510567 instructions: 50000002 cycles: 97930335

SHEET
IPC : 0.510567

L1D TOTAL     ACCESS:   19915074  HIT:   17697476  MISS:    2217598
L1D LOAD      ACCESS:    7658891  HIT:    6929912  MISS:     728979
L1D RFO       ACCESS:    5853197  HIT:    4900911  MISS:     952286
L1D PREFETCH  ACCESS:    6402986  HIT:    5866653  MISS:     536333
L1D WRITEBACK ACCESS:          0  HIT:          0  MISS:          0
L1D PREFETCH  REQUESTED:    7706459  ISSUED:    7522338  USEFUL:     196577  USELESS:     339845
L1D AVERAGE MISS LATENCY: 170.736 cycles
L1D

SHEET
L1D-total_access : 19915074
L1D-total_hit : 17697476
L1D-total_miss : 2217598
L1D-load_access : 7658891
L1D-load_hit : 6929912
L1D-load_miss : 728979
L1D-rfo_access : 5853197
L1D-rfo_hit : 4900911
L1D-rfo_miss : 952286
L1D-prefetch_access : 6402986
L1D-prefetch_hit : 5866653
L1D-prefetch_miss : 536333
L1D-writeback_access : 0
L1D-writeback_hit : 0
L1D-writeback_miss : 0
L1D-prefetch_requested : 7706459
L1D-prefetch_issued : 7522338
L1D-prefetch_useful : 196577
L1D-prefetch_useless : 339845
L1D-Avg_miss_latency : 170.736
L1D-Morteza_fill_l2_prefetches : 0

L1I TOTAL     ACCESS:    9960113  HIT:    7562959  MISS:    2397154
L1I LOAD      ACCESS:    9960113  HIT:    7562959  MISS:    2397154
L1I RFO       ACCESS:          0  HIT:          0  MISS:          0
L1I PREFETCH  ACCESS:          0  HIT:          0  MISS:          0
L1I WRITEBACK ACCESS:          0  HIT:          0  MISS:          0
L1I PREFETCH  REQUESTED:          0  ISSUED:          0  USEFUL:          0  USELESS:          0
L1I AVERAGE MISS LATENCY: 17.3395 cycles
L1I

SHEET
L1I-total_access : 9960113
L1I-total_hit : 7562959
L1I-total_miss : 2397154
L1I-load_access : 9960113
L1I-load_hit : 7562959
L1I-load_miss : 2397154
L1I-rfo_access : 0
L1I-rfo_hit : 0
L1I-rfo_miss : 0
L1I-prefetch_access : 0
L1I-prefetch_hit : 0
L1I-prefetch_miss : 0
L1I-writeback_access : 0
L1I-writeback_hit : 0
L1I-writeback_miss : 0
L1I-prefetch_requested : 0
L1I-prefetch_issued : 0
L1I-prefetch_useful : 0
L1I-prefetch_useless : 0
L1I-Avg_miss_latency : 17.3395
L1I-Morteza_fill_l2_prefetches : 0

L2C TOTAL     ACCESS:    7926462  HIT:    6064652  MISS:    1861810
L2C LOAD      ACCESS:    2896197  HIT:    2506474  MISS:     389723
L2C RFO       ACCESS:     951807  HIT:      20332  MISS:     931475
L2C PREFETCH  ACCESS:    2908364  HIT:    2370471  MISS:     537893
L2C WRITEBACK ACCESS:    1170094  HIT:    1167375  MISS:       2719
L2C PREFETCH  REQUESTED:    3978347  ISSUED:    3974889  USEFUL:      22966  USELESS:     515232
L2C AVERAGE MISS LATENCY: 207.628 cycles
L2C

SHEET
L2C-total_access : 7926462
L2C-total_hit : 6064652
L2C-total_miss : 1861810
L2C-load_access : 2896197
L2C-load_hit : 2506474
L2C-load_miss : 389723
L2C-rfo_access : 951807
L2C-rfo_hit : 20332
L2C-rfo_miss : 931475
L2C-prefetch_access : 2908364
L2C-prefetch_hit : 2370471
L2C-prefetch_miss : 537893
L2C-writeback_access : 1170094
L2C-writeback_hit : 1167375
L2C-writeback_miss : 2719
L2C-prefetch_requested : 3978347
L2C-prefetch_issued : 3974889
L2C-prefetch_useful : 22966
L2C-prefetch_useless : 515232
L2C-Avg_miss_latency : 207.628
L2C-Morteza_fill_l2_prefetches : 2139684

LLC TOTAL     ACCESS:    4080075  HIT:    2648882  MISS:    1431193
LLC LOAD      ACCESS:     389394  HIT:     278020  MISS:     111374
LLC RFO       ACCESS:     931471  HIT:     137127  MISS:     794344
LLC PREFETCH  ACCESS:    1658538  HIT:    1135056  MISS:     523482
LLC WRITEBACK ACCESS:    1100672  HIT:    1098679  MISS:       1993
LLC PREFETCH  REQUESTED:          0  ISSUED:          0  USEFUL:      33742  USELESS:     490580
LLC AVERAGE MISS LATENCY: 269.201 cycles
LLC

SHEET
LLC-total_access : 4080075
LLC-total_hit : 2648882
LLC-total_miss : 1431193
LLC-load_access : 389394
LLC-load_hit : 278020
LLC-load_miss : 111374
LLC-rfo_access : 931471
LLC-rfo_hit : 137127
LLC-rfo_miss : 794344
LLC-prefetch_access : 1658538
LLC-prefetch_hit : 1135056
LLC-prefetch_miss : 523482
LLC-writeback_access : 1100672
LLC-writeback_hit : 1098679
LLC-writeback_miss : 1993
LLC-prefetch_requested : 0
LLC-prefetch_issued : 0
LLC-prefetch_useful : 33742
LLC-prefetch_useless : 490580
LLC-Avg_miss_latency : 269.201
LLC-Morteza_fill_l2_prefetches : 909029

Major fault: 0 Minor fault: 22442
CPU 0 L1D next line prefetcher final stats

DRAM Statistics
 CHANNEL 0
 RQ ROW_BUFFER_HIT:     406556  ROW_BUFFER_MISS:    1022421
 DBUS_CONGESTED:    1406922
 WQ ROW_BUFFER_HIT:     263804  ROW_BUFFER_MISS:     627958  FULL:          0

 AVG_CONGESTED_CYCLE: 6

CPU 0 Branch Prediction Accuracy: 99.7114% MPKI: 0.47678 Average ROB Occupancy at Mispredict: 179.664

Branch types
NOT_BRANCH: 41741008 83.482%
BRANCH_DIRECT_JUMP: 458652 0.917304%
BRANCH_INDIRECT: 48282 0.096564%
BRANCH_CONDITIONAL: 5930881 11.8618%
BRANCH_DIRECT_CALL: 744230 1.48846%
BRANCH_INDIRECT_CALL: 166336 0.332672%
BRANCH_RETURN: 910589 1.82118%
BRANCH_OTHER: 0 0%

