Initialize SIGNATURE TABLE
ST_SET: 1
ST_WAY: 256
ST_TAG_BIT: 16
ST_TAG_MASK: ffff

Initialize PATTERN TABLE
PT_SET: 512
PT_WAY: 4
SIG_DELTA_BIT: 7
C_SIG_BIT: 4
C_DELTA_BIT: 4

Initialize PREFETCH FILTER
FILTER_SET: 1024

*** ChampSim Multicore Out-of-Order Simulator ***

Warmup Instructions: 50000000
Simulation Instructions: 50000000
Number of CPUs: 1
LLC sets: 2048
LLC ways: 16
Off-chip DRAM Size: 4096 MB Channels: 1 Width: 64-bit Data Rate: 3200 MT/s

CPU 0 runs /home/mbaradaran/ChampSim/dpc3_traces/server_027.champsimtrace.xz
CPU 0 L1D next line prefetcher
Heartbeat CPU 0 instructions: 10000001 cycles: 3534690 heartbeat IPC: 2.8291 cumulative IPC: 2.8291 (Simulation time: 0 hr 1 min 33 sec) 
Heartbeat CPU 0 instructions: 20000001 cycles: 7074168 heartbeat IPC: 2.82528 cumulative IPC: 2.82719 (Simulation time: 0 hr 3 min 6 sec) 
Heartbeat CPU 0 instructions: 30000002 cycles: 10607991 heartbeat IPC: 2.8298 cumulative IPC: 2.82806 (Simulation time: 0 hr 4 min 33 sec) 
Heartbeat CPU 0 instructions: 40000000 cycles: 14148423 heartbeat IPC: 2.82451 cumulative IPC: 2.82717 (Simulation time: 0 hr 5 min 56 sec) 
Heartbeat CPU 0 instructions: 50000001 cycles: 17682633 heartbeat IPC: 2.82949 cumulative IPC: 2.82763 (Simulation time: 0 hr 7 min 33 sec) 

Warmup complete CPU 0 instructions: 50000001 cycles: 17682633 (Simulation time: 0 hr 7 min 33 sec) 

Heartbeat CPU 0 instructions: 60000002 cycles: 28683746 heartbeat IPC: 0.908999 cumulative IPC: 0.908999 (Simulation time: 0 hr 8 min 44 sec) 
Heartbeat CPU 0 instructions: 70000003 cycles: 39589023 heartbeat IPC: 0.916987 cumulative IPC: 0.912976 (Simulation time: 0 hr 9 min 51 sec) 
Heartbeat CPU 0 instructions: 80000002 cycles: 50510041 heartbeat IPC: 0.915665 cumulative IPC: 0.913871 (Simulation time: 0 hr 11 min 6 sec) 
Heartbeat CPU 0 instructions: 90000000 cycles: 61496283 heartbeat IPC: 0.910229 cumulative IPC: 0.912957 (Simulation time: 0 hr 12 min 13 sec) 
Heartbeat CPU 0 instructions: 100000002 cycles: 72338788 heartbeat IPC: 0.922296 cumulative IPC: 0.91481 (Simulation time: 0 hr 13 min 28 sec) 
Finished CPU 0 instructions: 50000001 cycles: 54656155 cumulative IPC: 0.91481 (Simulation time: 0 hr 13 min 28 sec) 

ChampSim completed all CPUs

Region of Interest Statistics

CPU 0 cumulative IPC: 0.91481 instructions: 50000001 cycles: 54656155

SHEET
IPC : 0.91481

L1D TOTAL     ACCESS:   22572086  HIT:   20967919  MISS:    1604167
L1D LOAD      ACCESS:    8227710  HIT:    7550970  MISS:     676740
L1D RFO       ACCESS:    6381947  HIT:    6095832  MISS:     286115
L1D PREFETCH  ACCESS:    7962429  HIT:    7321117  MISS:     641312
L1D WRITEBACK ACCESS:          0  HIT:          0  MISS:          0
L1D PREFETCH  REQUESTED:    8273603  ISSUED:    8161580  USEFUL:     164620  USELESS:     476706
L1D AVERAGE MISS LATENCY: 22.7471 cycles
L1D

SHEET
L1D-total_access : 22572086
L1D-total_hit : 20967919
L1D-total_miss : 1604167
L1D-load_access : 8227710
L1D-load_hit : 7550970
L1D-load_miss : 676740
L1D-rfo_access : 6381947
L1D-rfo_hit : 6095832
L1D-rfo_miss : 286115
L1D-prefetch_access : 7962429
L1D-prefetch_hit : 7321117
L1D-prefetch_miss : 641312
L1D-writeback_access : 0
L1D-writeback_hit : 0
L1D-writeback_miss : 0
L1D-prefetch_requested : 8273603
L1D-prefetch_issued : 8161580
L1D-prefetch_useful : 164620
L1D-prefetch_useless : 476706
L1D-Avg_miss_latency : 22.7471
L1D-Morteza_fill_l2_prefetches : 0

L1I TOTAL     ACCESS:    9273419  HIT:    6519026  MISS:    2754393
L1I LOAD      ACCESS:    9273419  HIT:    6519026  MISS:    2754393
L1I RFO       ACCESS:          0  HIT:          0  MISS:          0
L1I PREFETCH  ACCESS:          0  HIT:          0  MISS:          0
L1I WRITEBACK ACCESS:          0  HIT:          0  MISS:          0
L1I PREFETCH  REQUESTED:          0  ISSUED:          0  USEFUL:          0  USELESS:          0
L1I AVERAGE MISS LATENCY: 18.8676 cycles
L1I

SHEET
L1I-total_access : 9273419
L1I-total_hit : 6519026
L1I-total_miss : 2754393
L1I-load_access : 9273419
L1I-load_hit : 6519026
L1I-load_miss : 2754393
L1I-rfo_access : 0
L1I-rfo_hit : 0
L1I-rfo_miss : 0
L1I-prefetch_access : 0
L1I-prefetch_hit : 0
L1I-prefetch_miss : 0
L1I-writeback_access : 0
L1I-writeback_hit : 0
L1I-writeback_miss : 0
L1I-prefetch_requested : 0
L1I-prefetch_issued : 0
L1I-prefetch_useful : 0
L1I-prefetch_useless : 0
L1I-Avg_miss_latency : 18.8676
L1I-Morteza_fill_l2_prefetches : 0

L2C TOTAL     ACCESS:    7117891  HIT:    6361874  MISS:     756017
L2C LOAD      ACCESS:    3386609  HIT:    2844266  MISS:     542343
L2C RFO       ACCESS:     283234  HIT:     201132  MISS:      82102
L2C PREFETCH  ACCESS:    2888635  HIT:    2759997  MISS:     128638
L2C WRITEBACK ACCESS:     559413  HIT:     556479  MISS:       2934
L2C PREFETCH  REQUESTED:    4332494  ISSUED:    4332045  USEFUL:      10486  USELESS:     118181
L2C AVERAGE MISS LATENCY: 35.8124 cycles
L2C

SHEET
L2C-total_access : 7117891
L2C-total_hit : 6361874
L2C-total_miss : 756017
L2C-load_access : 3386609
L2C-load_hit : 2844266
L2C-load_miss : 542343
L2C-rfo_access : 283234
L2C-rfo_hit : 201132
L2C-rfo_miss : 82102
L2C-prefetch_access : 2888635
L2C-prefetch_hit : 2759997
L2C-prefetch_miss : 128638
L2C-writeback_access : 559413
L2C-writeback_hit : 556479
L2C-writeback_miss : 2934
L2C-prefetch_requested : 4332494
L2C-prefetch_issued : 4332045
L2C-prefetch_useful : 10486
L2C-prefetch_useless : 118181
L2C-Avg_miss_latency : 35.8124
L2C-Morteza_fill_l2_prefetches : 2210653

LLC TOTAL     ACCESS:    2315518  HIT:    2282930  MISS:      32588
LLC LOAD      ACCESS:     542017  HIT:     537618  MISS:       4399
LLC RFO       ACCESS:      82017  HIT:      68074  MISS:      13943
LLC PREFETCH  ACCESS:    1555472  HIT:    1541419  MISS:      14053
LLC WRITEBACK ACCESS:     136012  HIT:     135819  MISS:        193
LLC PREFETCH  REQUESTED:          0  ISSUED:          0  USEFUL:       1521  USELESS:      13335
LLC AVERAGE MISS LATENCY: 180.434 cycles
LLC

SHEET
LLC-total_access : 2315518
LLC-total_hit : 2282930
LLC-total_miss : 32588
LLC-load_access : 542017
LLC-load_hit : 537618
LLC-load_miss : 4399
LLC-rfo_access : 82017
LLC-rfo_hit : 68074
LLC-rfo_miss : 13943
LLC-prefetch_access : 1555472
LLC-prefetch_hit : 1541419
LLC-prefetch_miss : 14053
LLC-writeback_access : 136012
LLC-writeback_hit : 135819
LLC-writeback_miss : 193
LLC-prefetch_requested : 0
LLC-prefetch_issued : 0
LLC-prefetch_useful : 1521
LLC-prefetch_useless : 13335
LLC-Avg_miss_latency : 180.434
LLC-Morteza_fill_l2_prefetches : 1426836

Major fault: 0 Minor fault: 2477
CPU 0 L1D next line prefetcher final stats

DRAM Statistics
 CHANNEL 0
 RQ ROW_BUFFER_HIT:      11273  ROW_BUFFER_MISS:      21120
 DBUS_CONGESTED:      22445
 WQ ROW_BUFFER_HIT:       1464  ROW_BUFFER_MISS:      13916  FULL:          0

 AVG_CONGESTED_CYCLE: 6

CPU 0 Branch Prediction Accuracy: 99.8082% MPKI: 0.35064 Average ROB Occupancy at Mispredict: 83.6545

Branch types
NOT_BRANCH: 40857228 81.7145%
BRANCH_DIRECT_JUMP: 526631 1.05326%
BRANCH_INDIRECT: 205902 0.411804%
BRANCH_CONDITIONAL: 6184014 12.368%
BRANCH_DIRECT_CALL: 938462 1.87692%
BRANCH_INDIRECT_CALL: 174486 0.348972%
BRANCH_RETURN: 1112951 2.2259%
BRANCH_OTHER: 0 0%

