Initialize SIGNATURE TABLE
ST_SET: 1
ST_WAY: 256
ST_TAG_BIT: 16
ST_TAG_MASK: ffff

Initialize PATTERN TABLE
PT_SET: 512
PT_WAY: 4
SIG_DELTA_BIT: 7
C_SIG_BIT: 4
C_DELTA_BIT: 4

Initialize PREFETCH FILTER
FILTER_SET: 1024

*** ChampSim Multicore Out-of-Order Simulator ***

Warmup Instructions: 50000000
Simulation Instructions: 50000000
Number of CPUs: 1
LLC sets: 2048
LLC ways: 16
Off-chip DRAM Size: 4096 MB Channels: 1 Width: 64-bit Data Rate: 3200 MT/s

CPU 0 runs /home/mbaradaran/ChampSim/dpc3_traces/server_002.champsimtrace.xz
CPU 0 L1D next line prefetcher
Heartbeat CPU 0 instructions: 10000000 cycles: 3581212 heartbeat IPC: 2.79235 cumulative IPC: 2.79235 (Simulation time: 0 hr 1 min 28 sec) 
Heartbeat CPU 0 instructions: 20000002 cycles: 7170059 heartbeat IPC: 2.78641 cumulative IPC: 2.78938 (Simulation time: 0 hr 3 min 3 sec) 
Heartbeat CPU 0 instructions: 30000000 cycles: 10710830 heartbeat IPC: 2.82424 cumulative IPC: 2.8009 (Simulation time: 0 hr 4 min 34 sec) 
Heartbeat CPU 0 instructions: 40000000 cycles: 14261075 heartbeat IPC: 2.81671 cumulative IPC: 2.80484 (Simulation time: 0 hr 6 min 10 sec) 
Heartbeat CPU 0 instructions: 50000001 cycles: 17808846 heartbeat IPC: 2.81867 cumulative IPC: 2.80759 (Simulation time: 0 hr 7 min 40 sec) 

Warmup complete CPU 0 instructions: 50000001 cycles: 17808846 (Simulation time: 0 hr 7 min 40 sec) 

Heartbeat CPU 0 instructions: 60000000 cycles: 25021888 heartbeat IPC: 1.38638 cumulative IPC: 1.38638 (Simulation time: 0 hr 8 min 52 sec) 
Heartbeat CPU 0 instructions: 70000003 cycles: 32231821 heartbeat IPC: 1.38698 cumulative IPC: 1.38668 (Simulation time: 0 hr 10 min 6 sec) 
Heartbeat CPU 0 instructions: 80000003 cycles: 39438659 heartbeat IPC: 1.38757 cumulative IPC: 1.38697 (Simulation time: 0 hr 11 min 20 sec) 
Heartbeat CPU 0 instructions: 90000002 cycles: 46653797 heartbeat IPC: 1.38597 cumulative IPC: 1.38672 (Simulation time: 0 hr 12 min 33 sec) 
Heartbeat CPU 0 instructions: 100000003 cycles: 53858639 heartbeat IPC: 1.38796 cumulative IPC: 1.38697 (Simulation time: 0 hr 13 min 49 sec) 
Finished CPU 0 instructions: 50000002 cycles: 36049793 cumulative IPC: 1.38697 (Simulation time: 0 hr 13 min 49 sec) 

ChampSim completed all CPUs

Region of Interest Statistics

CPU 0 cumulative IPC: 1.38697 instructions: 50000002 cycles: 36049793

SHEET
IPC : 1.38697

L1D TOTAL     ACCESS:   22378593  HIT:   22377783  MISS:        810
L1D LOAD      ACCESS:    7025637  HIT:    7025263  MISS:        374
L1D RFO       ACCESS:    8427558  HIT:    8427444  MISS:        114
L1D PREFETCH  ACCESS:    6925398  HIT:    6925076  MISS:        322
L1D WRITEBACK ACCESS:          0  HIT:          0  MISS:          0
L1D PREFETCH  REQUESTED:    7025696  ISSUED:    6930505  USEFUL:         93  USELESS:        230
L1D AVERAGE MISS LATENCY: 32.2198 cycles
L1D

SHEET
L1D-total_access : 22378593
L1D-total_hit : 22377783
L1D-total_miss : 810
L1D-load_access : 7025637
L1D-load_hit : 7025263
L1D-load_miss : 374
L1D-rfo_access : 8427558
L1D-rfo_hit : 8427444
L1D-rfo_miss : 114
L1D-prefetch_access : 6925398
L1D-prefetch_hit : 6925076
L1D-prefetch_miss : 322
L1D-writeback_access : 0
L1D-writeback_hit : 0
L1D-writeback_miss : 0
L1D-prefetch_requested : 7025696
L1D-prefetch_issued : 6930505
L1D-prefetch_useful : 93
L1D-prefetch_useless : 230
L1D-Avg_miss_latency : 32.2198
L1D-Morteza_fill_l2_prefetches : 0

L1I TOTAL     ACCESS:    9675912  HIT:    8856311  MISS:     819601
L1I LOAD      ACCESS:    9675912  HIT:    8856311  MISS:     819601
L1I RFO       ACCESS:          0  HIT:          0  MISS:          0
L1I PREFETCH  ACCESS:          0  HIT:          0  MISS:          0
L1I WRITEBACK ACCESS:          0  HIT:          0  MISS:          0
L1I PREFETCH  REQUESTED:          0  ISSUED:          0  USEFUL:          0  USELESS:          0
L1I AVERAGE MISS LATENCY: 14.0231 cycles
L1I

SHEET
L1I-total_access : 9675912
L1I-total_hit : 8856311
L1I-total_miss : 819601
L1I-load_access : 9675912
L1I-load_hit : 8856311
L1I-load_miss : 819601
L1I-rfo_access : 0
L1I-rfo_hit : 0
L1I-rfo_miss : 0
L1I-prefetch_access : 0
L1I-prefetch_hit : 0
L1I-prefetch_miss : 0
L1I-writeback_access : 0
L1I-writeback_hit : 0
L1I-writeback_miss : 0
L1I-prefetch_requested : 0
L1I-prefetch_issued : 0
L1I-prefetch_useful : 0
L1I-prefetch_useless : 0
L1I-Avg_miss_latency : 14.0231
L1I-Morteza_fill_l2_prefetches : 0

L2C TOTAL     ACCESS:    1173695  HIT:    1173454  MISS:        241
L2C LOAD      ACCESS:     819963  HIT:     819857  MISS:        106
L2C RFO       ACCESS:        113  HIT:        111  MISS:          2
L2C PREFETCH  ACCESS:     353282  HIT:     353150  MISS:        132
L2C WRITEBACK ACCESS:        337  HIT:        336  MISS:          1
L2C PREFETCH  REQUESTED:     545456  ISSUED:     545456  USEFUL:         44  USELESS:         84
L2C AVERAGE MISS LATENCY: 91.2946 cycles
L2C

SHEET
L2C-total_access : 1173695
L2C-total_hit : 1173454
L2C-total_miss : 241
L2C-load_access : 819963
L2C-load_hit : 819857
L2C-load_miss : 106
L2C-rfo_access : 113
L2C-rfo_hit : 111
L2C-rfo_miss : 2
L2C-prefetch_access : 353282
L2C-prefetch_hit : 353150
L2C-prefetch_miss : 132
L2C-writeback_access : 337
L2C-writeback_hit : 336
L2C-writeback_miss : 1
L2C-prefetch_requested : 545456
L2C-prefetch_issued : 545456
L2C-prefetch_useful : 44
L2C-prefetch_useless : 84
L2C-Avg_miss_latency : 91.2946
L2C-Morteza_fill_l2_prefetches : 352903

LLC TOTAL     ACCESS:     153108  HIT:     152548  MISS:        560
LLC LOAD      ACCESS:        106  HIT:         86  MISS:         20
LLC RFO       ACCESS:          2  HIT:          0  MISS:          2
LLC PREFETCH  ACCESS:     152910  HIT:     152375  MISS:        535
LLC WRITEBACK ACCESS:         90  HIT:         87  MISS:          3
LLC PREFETCH  REQUESTED:          0  ISSUED:          0  USEFUL:         12  USELESS:        112
LLC AVERAGE MISS LATENCY: 212.779 cycles
LLC

SHEET
LLC-total_access : 153108
LLC-total_hit : 152548
LLC-total_miss : 560
LLC-load_access : 106
LLC-load_hit : 86
LLC-load_miss : 20
LLC-rfo_access : 2
LLC-rfo_hit : 0
LLC-rfo_miss : 2
LLC-prefetch_access : 152910
LLC-prefetch_hit : 152375
LLC-prefetch_miss : 535
LLC-writeback_access : 90
LLC-writeback_hit : 87
LLC-writeback_miss : 3
LLC-prefetch_requested : 0
LLC-prefetch_issued : 0
LLC-prefetch_useful : 12
LLC-prefetch_useless : 112
LLC-Avg_miss_latency : 212.779
LLC-Morteza_fill_l2_prefetches : 152327

Major fault: 0 Minor fault: 1867
CPU 0 L1D next line prefetcher final stats

DRAM Statistics
 CHANNEL 0
 RQ ROW_BUFFER_HIT:         89  ROW_BUFFER_MISS:        468
 DBUS_CONGESTED:        328
 WQ ROW_BUFFER_HIT:         88  ROW_BUFFER_MISS:        314  FULL:          0

 AVG_CONGESTED_CYCLE: 6

CPU 0 Branch Prediction Accuracy: 99.8789% MPKI: 0.20388 Average ROB Occupancy at Mispredict: 62.4246

Branch types
NOT_BRANCH: 41580685 83.1614%
BRANCH_DIRECT_JUMP: 461629 0.923258%
BRANCH_INDIRECT: 0 0%
BRANCH_CONDITIONAL: 5376435 10.7529%
BRANCH_DIRECT_CALL: 1175774 2.35155%
BRANCH_INDIRECT_CALL: 114840 0.22968%
BRANCH_RETURN: 1290624 2.58125%
BRANCH_OTHER: 0 0%

