Initialize SIGNATURE TABLE
ST_SET: 1
ST_WAY: 256
ST_TAG_BIT: 16
ST_TAG_MASK: ffff

Initialize PATTERN TABLE
PT_SET: 512
PT_WAY: 4
SIG_DELTA_BIT: 7
C_SIG_BIT: 4
C_DELTA_BIT: 4

Initialize PREFETCH FILTER
FILTER_SET: 1024

*** ChampSim Multicore Out-of-Order Simulator ***

Warmup Instructions: 50000000
Simulation Instructions: 50000000
Number of CPUs: 1
LLC sets: 2048
LLC ways: 16
Off-chip DRAM Size: 4096 MB Channels: 1 Width: 64-bit Data Rate: 3200 MT/s

CPU 0 runs /home/mbaradaran/ChampSim/dpc3_traces/server_023.champsimtrace.xz
CPU 0 L1D next line prefetcher
Heartbeat CPU 0 instructions: 10000000 cycles: 3505221 heartbeat IPC: 2.85289 cumulative IPC: 2.85289 (Simulation time: 0 hr 1 min 40 sec) 
Heartbeat CPU 0 instructions: 20000000 cycles: 7009356 heartbeat IPC: 2.85377 cumulative IPC: 2.85333 (Simulation time: 0 hr 3 min 17 sec) 
Heartbeat CPU 0 instructions: 30000001 cycles: 10506873 heartbeat IPC: 2.85917 cumulative IPC: 2.85527 (Simulation time: 0 hr 4 min 45 sec) 
Heartbeat CPU 0 instructions: 40000003 cycles: 14011316 heartbeat IPC: 2.85352 cumulative IPC: 2.85484 (Simulation time: 0 hr 6 min 24 sec) 
Heartbeat CPU 0 instructions: 50000001 cycles: 17517620 heartbeat IPC: 2.85201 cumulative IPC: 2.85427 (Simulation time: 0 hr 8 min 0 sec) 

Warmup complete CPU 0 instructions: 50000001 cycles: 17517620 (Simulation time: 0 hr 8 min 0 sec) 

Heartbeat CPU 0 instructions: 60000000 cycles: 27769085 heartbeat IPC: 0.97547 cumulative IPC: 0.97547 (Simulation time: 0 hr 9 min 16 sec) 
Heartbeat CPU 0 instructions: 70000000 cycles: 38131779 heartbeat IPC: 0.965 cumulative IPC: 0.970207 (Simulation time: 0 hr 10 min 23 sec) 
Heartbeat CPU 0 instructions: 80000000 cycles: 48409935 heartbeat IPC: 0.972937 cumulative IPC: 0.971115 (Simulation time: 0 hr 11 min 40 sec) 
Heartbeat CPU 0 instructions: 90000000 cycles: 58080184 heartbeat IPC: 1.0341 cumulative IPC: 0.986131 (Simulation time: 0 hr 12 min 56 sec) 
Heartbeat CPU 0 instructions: 100000002 cycles: 68428904 heartbeat IPC: 0.966303 cumulative IPC: 0.982101 (Simulation time: 0 hr 14 min 8 sec) 
Finished CPU 0 instructions: 50000001 cycles: 50911284 cumulative IPC: 0.982101 (Simulation time: 0 hr 14 min 8 sec) 

ChampSim completed all CPUs

Region of Interest Statistics

CPU 0 cumulative IPC: 0.982101 instructions: 50000001 cycles: 50911284

SHEET
IPC : 0.982101

L1D TOTAL     ACCESS:   21659516  HIT:   20190391  MISS:    1469125
L1D LOAD      ACCESS:    7956664  HIT:    7307381  MISS:     649283
L1D RFO       ACCESS:    6052638  HIT:    5791053  MISS:     261585
L1D PREFETCH  ACCESS:    7650214  HIT:    7091957  MISS:     558257
L1D WRITEBACK ACCESS:          0  HIT:          0  MISS:          0
L1D PREFETCH  REQUESTED:    8005805  ISSUED:    7894789  USEFUL:     141928  USELESS:     416337
L1D AVERAGE MISS LATENCY: 23.4415 cycles
L1D

SHEET
L1D-total_access : 21659516
L1D-total_hit : 20190391
L1D-total_miss : 1469125
L1D-load_access : 7956664
L1D-load_hit : 7307381
L1D-load_miss : 649283
L1D-rfo_access : 6052638
L1D-rfo_hit : 5791053
L1D-rfo_miss : 261585
L1D-prefetch_access : 7650214
L1D-prefetch_hit : 7091957
L1D-prefetch_miss : 558257
L1D-writeback_access : 0
L1D-writeback_hit : 0
L1D-writeback_miss : 0
L1D-prefetch_requested : 8005805
L1D-prefetch_issued : 7894789
L1D-prefetch_useful : 141928
L1D-prefetch_useless : 416337
L1D-Avg_miss_latency : 23.4415
L1D-Morteza_fill_l2_prefetches : 0

L1I TOTAL     ACCESS:    9274546  HIT:    6876608  MISS:    2397938
L1I LOAD      ACCESS:    9274546  HIT:    6876608  MISS:    2397938
L1I RFO       ACCESS:          0  HIT:          0  MISS:          0
L1I PREFETCH  ACCESS:          0  HIT:          0  MISS:          0
L1I WRITEBACK ACCESS:          0  HIT:          0  MISS:          0
L1I PREFETCH  REQUESTED:          0  ISSUED:          0  USEFUL:          0  USELESS:          0
L1I AVERAGE MISS LATENCY: 18.3245 cycles
L1I

SHEET
L1I-total_access : 9274546
L1I-total_hit : 6876608
L1I-total_miss : 2397938
L1I-load_access : 9274546
L1I-load_hit : 6876608
L1I-load_miss : 2397938
L1I-rfo_access : 0
L1I-rfo_hit : 0
L1I-rfo_miss : 0
L1I-prefetch_access : 0
L1I-prefetch_hit : 0
L1I-prefetch_miss : 0
L1I-writeback_access : 0
L1I-writeback_hit : 0
L1I-writeback_miss : 0
L1I-prefetch_requested : 0
L1I-prefetch_issued : 0
L1I-prefetch_useful : 0
L1I-prefetch_useless : 0
L1I-Avg_miss_latency : 18.3245
L1I-Morteza_fill_l2_prefetches : 0

L2C TOTAL     ACCESS:    6354543  HIT:    5730755  MISS:     623788
L2C LOAD      ACCESS:    2975051  HIT:    2553866  MISS:     421185
L2C RFO       ACCESS:     259159  HIT:     174285  MISS:      84874
L2C PREFETCH  ACCESS:    2620906  HIT:    2504635  MISS:     116271
L2C WRITEBACK ACCESS:     499427  HIT:     497969  MISS:       1458
L2C PREFETCH  REQUESTED:    3898837  ISSUED:    3898614  USEFUL:      10795  USELESS:     105451
L2C AVERAGE MISS LATENCY: 40.1021 cycles
L2C

SHEET
L2C-total_access : 6354543
L2C-total_hit : 5730755
L2C-total_miss : 623788
L2C-load_access : 2975051
L2C-load_hit : 2553866
L2C-load_miss : 421185
L2C-rfo_access : 259159
L2C-rfo_hit : 174285
L2C-rfo_miss : 84874
L2C-prefetch_access : 2620906
L2C-prefetch_hit : 2504635
L2C-prefetch_miss : 116271
L2C-writeback_access : 499427
L2C-writeback_hit : 497969
L2C-writeback_miss : 1458
L2C-prefetch_requested : 3898837
L2C-prefetch_issued : 3898614
L2C-prefetch_useful : 10795
L2C-prefetch_useless : 105451
L2C-Avg_miss_latency : 40.1021
L2C-Morteza_fill_l2_prefetches : 2007102

LLC TOTAL     ACCESS:    1984852  HIT:    1936440  MISS:      48412
LLC LOAD      ACCESS:     420572  HIT:     412791  MISS:       7781
LLC RFO       ACCESS:      84874  HIT:      66966  MISS:      17908
LLC PREFETCH  ACCESS:    1348808  HIT:    1326385  MISS:      22423
LLC WRITEBACK ACCESS:     130598  HIT:     130298  MISS:        300
LLC PREFETCH  REQUESTED:          0  ISSUED:          0  USEFUL:       2787  USELESS:      21145
LLC AVERAGE MISS LATENCY: 178.317 cycles
LLC

SHEET
LLC-total_access : 1984852
LLC-total_hit : 1936440
LLC-total_miss : 48412
LLC-load_access : 420572
LLC-load_hit : 412791
LLC-load_miss : 7781
LLC-rfo_access : 84874
LLC-rfo_hit : 66966
LLC-rfo_miss : 17908
LLC-prefetch_access : 1348808
LLC-prefetch_hit : 1326385
LLC-prefetch_miss : 22423
LLC-writeback_access : 130598
LLC-writeback_hit : 130298
LLC-writeback_miss : 300
LLC-prefetch_requested : 0
LLC-prefetch_issued : 0
LLC-prefetch_useful : 2787
LLC-prefetch_useless : 21145
LLC-Avg_miss_latency : 178.317
LLC-Morteza_fill_l2_prefetches : 1229385

Major fault: 0 Minor fault: 2766
CPU 0 L1D next line prefetcher final stats

DRAM Statistics
 CHANNEL 0
 RQ ROW_BUFFER_HIT:      15160  ROW_BUFFER_MISS:      32942
 DBUS_CONGESTED:      30721
 WQ ROW_BUFFER_HIT:       2342  ROW_BUFFER_MISS:      18185  FULL:          0

 AVG_CONGESTED_CYCLE: 6

CPU 0 Branch Prediction Accuracy: 99.6798% MPKI: 0.58608 Average ROB Occupancy at Mispredict: 78.5135

Branch types
NOT_BRANCH: 40848070 81.6961%
BRANCH_DIRECT_JUMP: 548368 1.09674%
BRANCH_INDIRECT: 189802 0.379604%
BRANCH_CONDITIONAL: 6372722 12.7454%
BRANCH_DIRECT_CALL: 862205 1.72441%
BRANCH_INDIRECT_CALL: 158147 0.316294%
BRANCH_RETURN: 1020341 2.04068%
BRANCH_OTHER: 0 0%

