Initialize SIGNATURE TABLE
ST_SET: 1
ST_WAY: 256
ST_TAG_BIT: 16
ST_TAG_MASK: ffff

Initialize PATTERN TABLE
PT_SET: 512
PT_WAY: 4
SIG_DELTA_BIT: 7
C_SIG_BIT: 4
C_DELTA_BIT: 4

Initialize PREFETCH FILTER
FILTER_SET: 1024

*** ChampSim Multicore Out-of-Order Simulator ***

Warmup Instructions: 50000000
Simulation Instructions: 50000000
Number of CPUs: 1
LLC sets: 2048
LLC ways: 16
Off-chip DRAM Size: 4096 MB Channels: 1 Width: 64-bit Data Rate: 3200 MT/s

CPU 0 runs /home/mbaradaran/ChampSim/dpc3_traces/server_037.champsimtrace.xz
CPU 0 L1D next line prefetcher
Heartbeat CPU 0 instructions: 10000001 cycles: 3324384 heartbeat IPC: 3.00808 cumulative IPC: 3.00808 (Simulation time: 0 hr 1 min 43 sec) 
Heartbeat CPU 0 instructions: 20000002 cycles: 6646499 heartbeat IPC: 3.01013 cumulative IPC: 3.0091 (Simulation time: 0 hr 3 min 27 sec) 
Heartbeat CPU 0 instructions: 30000003 cycles: 10016512 heartbeat IPC: 2.96735 cumulative IPC: 2.99505 (Simulation time: 0 hr 5 min 3 sec) 
Heartbeat CPU 0 instructions: 40000000 cycles: 13340888 heartbeat IPC: 3.00808 cumulative IPC: 2.9983 (Simulation time: 0 hr 6 min 28 sec) 
Heartbeat CPU 0 instructions: 50000003 cycles: 16664251 heartbeat IPC: 3.009 cumulative IPC: 3.00044 (Simulation time: 0 hr 7 min 50 sec) 

Warmup complete CPU 0 instructions: 50000003 cycles: 16664251 (Simulation time: 0 hr 7 min 50 sec) 

Heartbeat CPU 0 instructions: 60000001 cycles: 27302965 heartbeat IPC: 0.939963 cumulative IPC: 0.939963 (Simulation time: 0 hr 8 min 51 sec) 
Heartbeat CPU 0 instructions: 70000000 cycles: 38019535 heartbeat IPC: 0.933134 cumulative IPC: 0.936536 (Simulation time: 0 hr 9 min 53 sec) 
Heartbeat CPU 0 instructions: 80000002 cycles: 48655719 heartbeat IPC: 0.940187 cumulative IPC: 0.93775 (Simulation time: 0 hr 10 min 57 sec) 
Heartbeat CPU 0 instructions: 90000002 cycles: 59312515 heartbeat IPC: 0.938368 cumulative IPC: 0.937904 (Simulation time: 0 hr 12 min 4 sec) 
*** Reached end of trace for Core: 0 Repeating trace: /home/mbaradaran/ChampSim/dpc3_traces/server_037.champsimtrace.xz
Heartbeat CPU 0 instructions: 100000000 cycles: 69962104 heartbeat IPC: 0.939003 cumulative IPC: 0.938124 (Simulation time: 0 hr 13 min 7 sec) 
Finished CPU 0 instructions: 50000001 cycles: 53297854 cumulative IPC: 0.938124 (Simulation time: 0 hr 13 min 7 sec) 

ChampSim completed all CPUs

Region of Interest Statistics

CPU 0 cumulative IPC: 0.938124 instructions: 50000001 cycles: 53297854

SHEET
IPC : 0.938124

L1D TOTAL     ACCESS:   22097776  HIT:   21117622  MISS:     980154
L1D LOAD      ACCESS:    7987133  HIT:    7499803  MISS:     487330
L1D RFO       ACCESS:    6285404  HIT:    6216762  MISS:      68642
L1D PREFETCH  ACCESS:    7825239  HIT:    7401057  MISS:     424182
L1D WRITEBACK ACCESS:          0  HIT:          0  MISS:          0
L1D PREFETCH  REQUESTED:    8033222  ISSUED:    7940536  USEFUL:     117148  USELESS:     307039
L1D AVERAGE MISS LATENCY: 28.6442 cycles
L1D

SHEET
L1D-total_access : 22097776
L1D-total_hit : 21117622
L1D-total_miss : 980154
L1D-load_access : 7987133
L1D-load_hit : 7499803
L1D-load_miss : 487330
L1D-rfo_access : 6285404
L1D-rfo_hit : 6216762
L1D-rfo_miss : 68642
L1D-prefetch_access : 7825239
L1D-prefetch_hit : 7401057
L1D-prefetch_miss : 424182
L1D-writeback_access : 0
L1D-writeback_hit : 0
L1D-writeback_miss : 0
L1D-prefetch_requested : 8033222
L1D-prefetch_issued : 7940536
L1D-prefetch_useful : 117148
L1D-prefetch_useless : 307039
L1D-Avg_miss_latency : 28.6442
L1D-Morteza_fill_l2_prefetches : 0

L1I TOTAL     ACCESS:    9467141  HIT:    5433222  MISS:    4033919
L1I LOAD      ACCESS:    9467141  HIT:    5433222  MISS:    4033919
L1I RFO       ACCESS:          0  HIT:          0  MISS:          0
L1I PREFETCH  ACCESS:          0  HIT:          0  MISS:          0
L1I WRITEBACK ACCESS:          0  HIT:          0  MISS:          0
L1I PREFETCH  REQUESTED:          0  ISSUED:          0  USEFUL:          0  USELESS:          0
L1I AVERAGE MISS LATENCY: 14.2728 cycles
L1I

SHEET
L1I-total_access : 9467141
L1I-total_hit : 5433222
L1I-total_miss : 4033919
L1I-load_access : 9467141
L1I-load_hit : 5433222
L1I-load_miss : 4033919
L1I-rfo_access : 0
L1I-rfo_hit : 0
L1I-rfo_miss : 0
L1I-prefetch_access : 0
L1I-prefetch_hit : 0
L1I-prefetch_miss : 0
L1I-writeback_access : 0
L1I-writeback_hit : 0
L1I-writeback_miss : 0
L1I-prefetch_requested : 0
L1I-prefetch_issued : 0
L1I-prefetch_useful : 0
L1I-prefetch_useless : 0
L1I-Avg_miss_latency : 14.2728
L1I-Morteza_fill_l2_prefetches : 0

L2C TOTAL     ACCESS:    9314154  HIT:    9001004  MISS:     313150
L2C LOAD      ACCESS:    4515707  HIT:    4368972  MISS:     146735
L2C RFO       ACCESS:      68453  HIT:      41246  MISS:      27207
L2C PREFETCH  ACCESS:    4439693  HIT:    4301417  MISS:     138276
L2C WRITEBACK ACCESS:     290301  HIT:     289369  MISS:        932
L2C PREFETCH  REQUESTED:    5911764  ISSUED:    5905440  USEFUL:       6997  USELESS:     131260
L2C AVERAGE MISS LATENCY: 45.6857 cycles
L2C

SHEET
L2C-total_access : 9314154
L2C-total_hit : 9001004
L2C-total_miss : 313150
L2C-load_access : 4515707
L2C-load_hit : 4368972
L2C-load_miss : 146735
L2C-rfo_access : 68453
L2C-rfo_hit : 41246
L2C-rfo_miss : 27207
L2C-prefetch_access : 4439693
L2C-prefetch_hit : 4301417
L2C-prefetch_miss : 138276
L2C-writeback_access : 290301
L2C-writeback_hit : 289369
L2C-writeback_miss : 932
L2C-prefetch_requested : 5911764
L2C-prefetch_issued : 5905440
L2C-prefetch_useful : 6997
L2C-prefetch_useless : 131260
L2C-Avg_miss_latency : 45.6857
L2C-Morteza_fill_l2_prefetches : 4000121

LLC TOTAL     ACCESS:    1698177  HIT:    1644663  MISS:      53514
LLC LOAD      ACCESS:     146686  HIT:     133005  MISS:      13681
LLC RFO       ACCESS:      27206  HIT:      22490  MISS:       4716
LLC PREFETCH  ACCESS:    1387379  HIT:    1352768  MISS:      34611
LLC WRITEBACK ACCESS:     136906  HIT:     136400  MISS:        506
LLC PREFETCH  REQUESTED:          0  ISSUED:          0  USEFUL:       3709  USELESS:      30975
LLC AVERAGE MISS LATENCY: 163.325 cycles
LLC

SHEET
LLC-total_access : 1698177
LLC-total_hit : 1644663
LLC-total_miss : 53514
LLC-load_access : 146686
LLC-load_hit : 133005
LLC-load_miss : 13681
LLC-rfo_access : 27206
LLC-rfo_hit : 22490
LLC-rfo_miss : 4716
LLC-prefetch_access : 1387380
LLC-prefetch_hit : 1352769
LLC-prefetch_miss : 34611
LLC-writeback_access : 136906
LLC-writeback_hit : 136400
LLC-writeback_miss : 506
LLC-prefetch_requested : 0
LLC-prefetch_issued : 0
LLC-prefetch_useful : 3709
LLC-prefetch_useless : 30975
LLC-Avg_miss_latency : 163.325
LLC-Morteza_fill_l2_prefetches : 1237846

Major fault: 0 Minor fault: 5652
CPU 0 L1D next line prefetcher final stats

DRAM Statistics
 CHANNEL 0
 RQ ROW_BUFFER_HIT:       8550  ROW_BUFFER_MISS:      44458
 DBUS_CONGESTED:      24255
 WQ ROW_BUFFER_HIT:       1380  ROW_BUFFER_MISS:      10385  FULL:          0

 AVG_CONGESTED_CYCLE: 5

CPU 0 Branch Prediction Accuracy: 99.913% MPKI: 0.15656 Average ROB Occupancy at Mispredict: 32.0869

Branch types
NOT_BRANCH: 41001560 82.0031%
BRANCH_DIRECT_JUMP: 541940 1.08388%
BRANCH_INDIRECT: 59716 0.119432%
BRANCH_CONDITIONAL: 5916841 11.8337%
BRANCH_DIRECT_CALL: 1005458 2.01092%
BRANCH_INDIRECT_CALL: 234433 0.468866%
BRANCH_RETURN: 1239866 2.47973%
BRANCH_OTHER: 0 0%

