Initialize SIGNATURE TABLE
ST_SET: 1
ST_WAY: 256
ST_TAG_BIT: 16
ST_TAG_MASK: ffff

Initialize PATTERN TABLE
PT_SET: 512
PT_WAY: 4
SIG_DELTA_BIT: 7
C_SIG_BIT: 4
C_DELTA_BIT: 4

Initialize PREFETCH FILTER
FILTER_SET: 1024

*** ChampSim Multicore Out-of-Order Simulator ***

Warmup Instructions: 50000000
Simulation Instructions: 50000000
Number of CPUs: 1
LLC sets: 2048
LLC ways: 16
Off-chip DRAM Size: 4096 MB Channels: 1 Width: 64-bit Data Rate: 3200 MT/s

CPU 0 runs /home/mbaradaran/ChampSim/dpc3_traces/server_032.champsimtrace.xz
CPU 0 L1D next line prefetcher
Heartbeat CPU 0 instructions: 10000002 cycles: 3533947 heartbeat IPC: 2.8297 cumulative IPC: 2.8297 (Simulation time: 0 hr 1 min 43 sec) 
Heartbeat CPU 0 instructions: 20000003 cycles: 7069362 heartbeat IPC: 2.82852 cumulative IPC: 2.82911 (Simulation time: 0 hr 3 min 24 sec) 
Heartbeat CPU 0 instructions: 30000000 cycles: 10604550 heartbeat IPC: 2.8287 cumulative IPC: 2.82897 (Simulation time: 0 hr 4 min 56 sec) 
Heartbeat CPU 0 instructions: 40000003 cycles: 14140945 heartbeat IPC: 2.82774 cumulative IPC: 2.82867 (Simulation time: 0 hr 6 min 33 sec) 
Heartbeat CPU 0 instructions: 50000000 cycles: 17675577 heartbeat IPC: 2.82915 cumulative IPC: 2.82876 (Simulation time: 0 hr 8 min 1 sec) 

Warmup complete CPU 0 instructions: 50000004 cycles: 17675578 (Simulation time: 0 hr 8 min 1 sec) 

Heartbeat CPU 0 instructions: 60000002 cycles: 28758194 heartbeat IPC: 0.902314 cumulative IPC: 0.902314 (Simulation time: 0 hr 9 min 3 sec) 
Heartbeat CPU 0 instructions: 70000001 cycles: 39840754 heartbeat IPC: 0.902319 cumulative IPC: 0.902316 (Simulation time: 0 hr 10 min 14 sec) 
*** Reached end of trace for Core: 0 Repeating trace: /home/mbaradaran/ChampSim/dpc3_traces/server_032.champsimtrace.xz
Heartbeat CPU 0 instructions: 80000003 cycles: 50927172 heartbeat IPC: 0.902005 cumulative IPC: 0.902212 (Simulation time: 0 hr 11 min 26 sec) 
Heartbeat CPU 0 instructions: 90000000 cycles: 61990176 heartbeat IPC: 0.903913 cumulative IPC: 0.902637 (Simulation time: 0 hr 12 min 33 sec) 
Heartbeat CPU 0 instructions: 100000001 cycles: 73066999 heartbeat IPC: 0.902786 cumulative IPC: 0.902667 (Simulation time: 0 hr 13 min 45 sec) 
Finished CPU 0 instructions: 50000002 cycles: 55391429 cumulative IPC: 0.902667 (Simulation time: 0 hr 13 min 45 sec) 

ChampSim completed all CPUs

Region of Interest Statistics

CPU 0 cumulative IPC: 0.902667 instructions: 50000002 cycles: 55391429

SHEET
IPC : 0.902667

L1D TOTAL     ACCESS:   22902328  HIT:   21070077  MISS:    1832251
L1D LOAD      ACCESS:    8247593  HIT:    7465553  MISS:     782040
L1D RFO       ACCESS:    6654713  HIT:    6358056  MISS:     296657
L1D PREFETCH  ACCESS:    8000022  HIT:    7246468  MISS:     753554
L1D WRITEBACK ACCESS:          0  HIT:          0  MISS:          0
L1D PREFETCH  REQUESTED:    8297691  ISSUED:    8188642  USEFUL:     182059  USELESS:     571493
L1D AVERAGE MISS LATENCY: 18.8347 cycles
L1D

SHEET
L1D-total_access : 22902328
L1D-total_hit : 21070077
L1D-total_miss : 1832251
L1D-load_access : 8247593
L1D-load_hit : 7465553
L1D-load_miss : 782040
L1D-rfo_access : 6654713
L1D-rfo_hit : 6358056
L1D-rfo_miss : 296657
L1D-prefetch_access : 8000022
L1D-prefetch_hit : 7246468
L1D-prefetch_miss : 753554
L1D-writeback_access : 0
L1D-writeback_hit : 0
L1D-writeback_miss : 0
L1D-prefetch_requested : 8297691
L1D-prefetch_issued : 8188642
L1D-prefetch_useful : 182059
L1D-prefetch_useless : 571493
L1D-Avg_miss_latency : 18.8347
L1D-Morteza_fill_l2_prefetches : 0

L1I TOTAL     ACCESS:    9497212  HIT:    6331196  MISS:    3166016
L1I LOAD      ACCESS:    9497212  HIT:    6331196  MISS:    3166016
L1I RFO       ACCESS:          0  HIT:          0  MISS:          0
L1I PREFETCH  ACCESS:          0  HIT:          0  MISS:          0
L1I WRITEBACK ACCESS:          0  HIT:          0  MISS:          0
L1I PREFETCH  REQUESTED:          0  ISSUED:          0  USEFUL:          0  USELESS:          0
L1I AVERAGE MISS LATENCY: 17.2124 cycles
L1I

SHEET
L1I-total_access : 9497212
L1I-total_hit : 6331196
L1I-total_miss : 3166016
L1I-load_access : 9497212
L1I-load_hit : 6331196
L1I-load_miss : 3166016
L1I-rfo_access : 0
L1I-rfo_hit : 0
L1I-rfo_miss : 0
L1I-prefetch_access : 0
L1I-prefetch_hit : 0
L1I-prefetch_miss : 0
L1I-writeback_access : 0
L1I-writeback_hit : 0
L1I-writeback_miss : 0
L1I-prefetch_requested : 0
L1I-prefetch_issued : 0
L1I-prefetch_useful : 0
L1I-prefetch_useless : 0
L1I-Avg_miss_latency : 17.2124
L1I-Morteza_fill_l2_prefetches : 0

L2C TOTAL     ACCESS:    8529772  HIT:    7931327  MISS:     598445
L2C LOAD      ACCESS:    3919117  HIT:    3499991  MISS:     419126
L2C RFO       ACCESS:     292890  HIT:     244634  MISS:      48256
L2C PREFETCH  ACCESS:    3681426  HIT:    3559771  MISS:     121655
L2C WRITEBACK ACCESS:     636339  HIT:     626931  MISS:       9408
L2C PREFETCH  REQUESTED:    5496432  ISSUED:    5496315  USEFUL:       7154  USELESS:     114552
L2C AVERAGE MISS LATENCY: 30.0293 cycles
L2C

SHEET
L2C-total_access : 8529772
L2C-total_hit : 7931327
L2C-total_miss : 598445
L2C-load_access : 3919117
L2C-load_hit : 3499991
L2C-load_miss : 419126
L2C-rfo_access : 292890
L2C-rfo_hit : 244634
L2C-rfo_miss : 48256
L2C-prefetch_access : 3681426
L2C-prefetch_hit : 3559771
L2C-prefetch_miss : 121655
L2C-writeback_access : 636339
L2C-writeback_hit : 626931
L2C-writeback_miss : 9408
L2C-prefetch_requested : 5496432
L2C-prefetch_issued : 5496315
L2C-prefetch_useful : 7154
L2C-prefetch_useless : 114552
L2C-Avg_miss_latency : 30.0293
L2C-Morteza_fill_l2_prefetches : 2897726

LLC TOTAL     ACCESS:    2272800  HIT:    2267449  MISS:       5351
LLC LOAD      ACCESS:     416708  HIT:     416215  MISS:        493
LLC RFO       ACCESS:      48256  HIT:      48256  MISS:          0
LLC PREFETCH  ACCESS:    1713579  HIT:    1708736  MISS:       4843
LLC WRITEBACK ACCESS:      94257  HIT:      94242  MISS:         15
LLC PREFETCH  REQUESTED:          0  ISSUED:          0  USEFUL:        367  USELESS:       1650
LLC AVERAGE MISS LATENCY: 145.358 cycles
LLC

SHEET
LLC-total_access : 2272800
LLC-total_hit : 2267449
LLC-total_miss : 5351
LLC-load_access : 416708
LLC-load_hit : 416215
LLC-load_miss : 493
LLC-rfo_access : 48256
LLC-rfo_hit : 48256
LLC-rfo_miss : 0
LLC-prefetch_access : 1713579
LLC-prefetch_hit : 1708736
LLC-prefetch_miss : 4843
LLC-writeback_access : 94257
LLC-writeback_hit : 94242
LLC-writeback_miss : 15
LLC-prefetch_requested : 0
LLC-prefetch_issued : 0
LLC-prefetch_useful : 367
LLC-prefetch_useless : 1650
LLC-Avg_miss_latency : 145.358
LLC-Morteza_fill_l2_prefetches : 1596363

Major fault: 0 Minor fault: 1178
CPU 0 L1D next line prefetcher final stats

DRAM Statistics
 CHANNEL 0
 RQ ROW_BUFFER_HIT:       1550  ROW_BUFFER_MISS:       3786
 DBUS_CONGESTED:        755
 WQ ROW_BUFFER_HIT:          1  ROW_BUFFER_MISS:          6  FULL:          0

 AVG_CONGESTED_CYCLE: 4

CPU 0 Branch Prediction Accuracy: 99.8762% MPKI: 0.2296 Average ROB Occupancy at Mispredict: 92.9937

Branch types
NOT_BRANCH: 40725937 81.4519%
BRANCH_DIRECT_JUMP: 508368 1.01674%
BRANCH_INDIRECT: 180051 0.360102%
BRANCH_CONDITIONAL: 5999625 11.9992%
BRANCH_DIRECT_CALL: 1086730 2.17346%
BRANCH_INDIRECT_CALL: 206109 0.412218%
BRANCH_RETURN: 1292826 2.58565%
BRANCH_OTHER: 0 0%

