Initialize SIGNATURE TABLE
ST_SET: 1
ST_WAY: 256
ST_TAG_BIT: 16
ST_TAG_MASK: ffff

Initialize PATTERN TABLE
PT_SET: 512
PT_WAY: 4
SIG_DELTA_BIT: 7
C_SIG_BIT: 4
C_DELTA_BIT: 4

Initialize PREFETCH FILTER
FILTER_SET: 1024

*** ChampSim Multicore Out-of-Order Simulator ***

Warmup Instructions: 50000000
Simulation Instructions: 50000000
Number of CPUs: 1
LLC sets: 2048
LLC ways: 16
Off-chip DRAM Size: 4096 MB Channels: 1 Width: 64-bit Data Rate: 3200 MT/s

CPU 0 runs /home/mbaradaran/ChampSim/dpc3_traces/server_012.champsimtrace.xz
CPU 0 L1D next line prefetcher
Heartbeat CPU 0 instructions: 10000002 cycles: 3198384 heartbeat IPC: 3.12658 cumulative IPC: 3.12658 (Simulation time: 0 hr 1 min 27 sec) 
Heartbeat CPU 0 instructions: 20000002 cycles: 6400256 heartbeat IPC: 3.12317 cumulative IPC: 3.12488 (Simulation time: 0 hr 2 min 50 sec) 
Heartbeat CPU 0 instructions: 30000001 cycles: 9602720 heartbeat IPC: 3.1226 cumulative IPC: 3.12411 (Simulation time: 0 hr 4 min 26 sec) 
Heartbeat CPU 0 instructions: 40000000 cycles: 12810940 heartbeat IPC: 3.11699 cumulative IPC: 3.12233 (Simulation time: 0 hr 5 min 54 sec) 
Heartbeat CPU 0 instructions: 50000003 cycles: 16012020 heartbeat IPC: 3.12395 cumulative IPC: 3.12265 (Simulation time: 0 hr 7 min 20 sec) 

Warmup complete CPU 0 instructions: 50000003 cycles: 16012020 (Simulation time: 0 hr 7 min 20 sec) 

Heartbeat CPU 0 instructions: 60000002 cycles: 26639734 heartbeat IPC: 0.940936 cumulative IPC: 0.940936 (Simulation time: 0 hr 8 min 27 sec) 
Heartbeat CPU 0 instructions: 70000000 cycles: 37326023 heartbeat IPC: 0.935778 cumulative IPC: 0.93835 (Simulation time: 0 hr 9 min 39 sec) 
Heartbeat CPU 0 instructions: 80000003 cycles: 48272903 heartbeat IPC: 0.913503 cumulative IPC: 0.929919 (Simulation time: 0 hr 10 min 46 sec) 
Heartbeat CPU 0 instructions: 90000001 cycles: 59226617 heartbeat IPC: 0.912932 cumulative IPC: 0.925613 (Simulation time: 0 hr 11 min 58 sec) 
Heartbeat CPU 0 instructions: 100000002 cycles: 70045246 heartbeat IPC: 0.924332 cumulative IPC: 0.925357 (Simulation time: 0 hr 13 min 11 sec) 
Finished CPU 0 instructions: 50000001 cycles: 54033227 cumulative IPC: 0.925357 (Simulation time: 0 hr 13 min 11 sec) 

ChampSim completed all CPUs

Region of Interest Statistics

CPU 0 cumulative IPC: 0.925357 instructions: 50000001 cycles: 54033227

SHEET
IPC : 0.925357

L1D TOTAL     ACCESS:   18503469  HIT:   17459278  MISS:    1044191
L1D LOAD      ACCESS:    6858136  HIT:    6383437  MISS:     474699
L1D RFO       ACCESS:    5014153  HIT:    4931831  MISS:      82322
L1D PREFETCH  ACCESS:    6631180  HIT:    6144010  MISS:     487170
L1D WRITEBACK ACCESS:          0  HIT:          0  MISS:          0
L1D PREFETCH  REQUESTED:    6895452  ISSUED:    6789772  USEFUL:     145886  USELESS:     341305
L1D AVERAGE MISS LATENCY: 39.1029 cycles
L1D

SHEET
L1D-total_access : 18503469
L1D-total_hit : 17459278
L1D-total_miss : 1044191
L1D-load_access : 6858136
L1D-load_hit : 6383437
L1D-load_miss : 474699
L1D-rfo_access : 5014153
L1D-rfo_hit : 4931831
L1D-rfo_miss : 82322
L1D-prefetch_access : 6631180
L1D-prefetch_hit : 6144010
L1D-prefetch_miss : 487170
L1D-writeback_access : 0
L1D-writeback_hit : 0
L1D-writeback_miss : 0
L1D-prefetch_requested : 6895452
L1D-prefetch_issued : 6789772
L1D-prefetch_useful : 145886
L1D-prefetch_useless : 341305
L1D-Avg_miss_latency : 39.1029
L1D-Morteza_fill_l2_prefetches : 0

L1I TOTAL     ACCESS:    8557314  HIT:    7258770  MISS:    1298544
L1I LOAD      ACCESS:    8557314  HIT:    7258770  MISS:    1298544
L1I RFO       ACCESS:          0  HIT:          0  MISS:          0
L1I PREFETCH  ACCESS:          0  HIT:          0  MISS:          0
L1I WRITEBACK ACCESS:          0  HIT:          0  MISS:          0
L1I PREFETCH  REQUESTED:          0  ISSUED:          0  USEFUL:          0  USELESS:          0
L1I AVERAGE MISS LATENCY: 30.9702 cycles
L1I

SHEET
L1I-total_access : 8557314
L1I-total_hit : 7258770
L1I-total_miss : 1298544
L1I-load_access : 8557314
L1I-load_hit : 7258770
L1I-load_miss : 1298544
L1I-rfo_access : 0
L1I-rfo_hit : 0
L1I-rfo_miss : 0
L1I-prefetch_access : 0
L1I-prefetch_hit : 0
L1I-prefetch_miss : 0
L1I-writeback_access : 0
L1I-writeback_hit : 0
L1I-writeback_miss : 0
L1I-prefetch_requested : 0
L1I-prefetch_issued : 0
L1I-prefetch_useful : 0
L1I-prefetch_useless : 0
L1I-Avg_miss_latency : 30.9702
L1I-Morteza_fill_l2_prefetches : 0

L2C TOTAL     ACCESS:    3667200  HIT:    2469677  MISS:    1197523
L2C LOAD      ACCESS:    1753710  HIT:     944815  MISS:     808895
L2C RFO       ACCESS:      81151  HIT:      32686  MISS:      48465
L2C PREFETCH  ACCESS:    1556783  HIT:    1217472  MISS:     339311
L2C WRITEBACK ACCESS:     275556  HIT:     274704  MISS:        852
L2C PREFETCH  REQUESTED:    3602737  ISSUED:    3602373  USEFUL:      66524  USELESS:     272839
L2C AVERAGE MISS LATENCY: 40.8114 cycles
L2C

SHEET
L2C-total_access : 3667200
L2C-total_hit : 2469677
L2C-total_miss : 1197523
L2C-load_access : 1753710
L2C-load_hit : 944815
L2C-load_miss : 808895
L2C-rfo_access : 81151
L2C-rfo_hit : 32686
L2C-rfo_miss : 48465
L2C-prefetch_access : 1556783
L2C-prefetch_hit : 1217472
L2C-prefetch_miss : 339311
L2C-writeback_access : 275556
L2C-writeback_hit : 274704
L2C-writeback_miss : 852
L2C-prefetch_requested : 3602737
L2C-prefetch_issued : 3602373
L2C-prefetch_useful : 66524
L2C-prefetch_useless : 272839
L2C-Avg_miss_latency : 40.8114
L2C-Morteza_fill_l2_prefetches : 975029

LLC TOTAL     ACCESS:    3058751  HIT:    2874492  MISS:     184259
LLC LOAD      ACCESS:     778496  HIT:     736764  MISS:      41732
LLC RFO       ACCESS:      48464  HIT:      37923  MISS:      10541
LLC PREFETCH  ACCESS:    2070425  HIT:    1939085  MISS:     131340
LLC WRITEBACK ACCESS:     161366  HIT:     160720  MISS:        646
LLC PREFETCH  REQUESTED:          0  ISSUED:          0  USEFUL:      24696  USELESS:     106533
LLC AVERAGE MISS LATENCY: 161.384 cycles
LLC

SHEET
LLC-total_access : 3058751
LLC-total_hit : 2874492
LLC-total_miss : 184259
LLC-load_access : 778496
LLC-load_hit : 736764
LLC-load_miss : 41732
LLC-rfo_access : 48464
LLC-rfo_hit : 37923
LLC-rfo_miss : 10541
LLC-prefetch_access : 2070425
LLC-prefetch_hit : 1939085
LLC-prefetch_miss : 131340
LLC-writeback_access : 161366
LLC-writeback_hit : 160720
LLC-writeback_miss : 646
LLC-prefetch_requested : 0
LLC-prefetch_issued : 0
LLC-prefetch_useful : 24696
LLC-prefetch_useless : 106533
LLC-Avg_miss_latency : 161.384
LLC-Morteza_fill_l2_prefetches : 1703263

Major fault: 0 Minor fault: 5596
CPU 0 L1D next line prefetcher final stats

DRAM Statistics
 CHANNEL 0
 RQ ROW_BUFFER_HIT:      31207  ROW_BUFFER_MISS:     152393
 DBUS_CONGESTED:      72827
 WQ ROW_BUFFER_HIT:      10673  ROW_BUFFER_MISS:      51922  FULL:          0

 AVG_CONGESTED_CYCLE: 5

CPU 0 Branch Prediction Accuracy: 99.4607% MPKI: 1.00288 Average ROB Occupancy at Mispredict: 68.3099

Branch types
NOT_BRANCH: 40700937 81.4019%
BRANCH_DIRECT_JUMP: 469808 0.939616%
BRANCH_INDIRECT: 153732 0.307464%
BRANCH_CONDITIONAL: 6944055 13.8881%
BRANCH_DIRECT_CALL: 679876 1.35975%
BRANCH_INDIRECT_CALL: 168745 0.33749%
BRANCH_RETURN: 882491 1.76498%
BRANCH_OTHER: 0 0%

