Initialize SIGNATURE TABLE
ST_SET: 1
ST_WAY: 256
ST_TAG_BIT: 16
ST_TAG_MASK: ffff

Initialize PATTERN TABLE
PT_SET: 512
PT_WAY: 4
SIG_DELTA_BIT: 7
C_SIG_BIT: 4
C_DELTA_BIT: 4

Initialize PREFETCH FILTER
FILTER_SET: 1024

*** ChampSim Multicore Out-of-Order Simulator ***

Warmup Instructions: 50000000
Simulation Instructions: 50000000
Number of CPUs: 1
LLC sets: 2048
LLC ways: 16
Off-chip DRAM Size: 4096 MB Channels: 1 Width: 64-bit Data Rate: 3200 MT/s

CPU 0 runs /home/mbaradaran/ChampSim/dpc3_traces/server_036.champsimtrace.xz
CPU 0 L1D next line prefetcher
Heartbeat CPU 0 instructions: 10000000 cycles: 3459066 heartbeat IPC: 2.89095 cumulative IPC: 2.89095 (Simulation time: 0 hr 1 min 41 sec) 
Heartbeat CPU 0 instructions: 20000000 cycles: 6924961 heartbeat IPC: 2.88526 cumulative IPC: 2.8881 (Simulation time: 0 hr 3 min 10 sec) 
Heartbeat CPU 0 instructions: 30000003 cycles: 10433159 heartbeat IPC: 2.85047 cumulative IPC: 2.87545 (Simulation time: 0 hr 4 min 43 sec) 
Heartbeat CPU 0 instructions: 40000000 cycles: 13895688 heartbeat IPC: 2.88806 cumulative IPC: 2.87859 (Simulation time: 0 hr 6 min 16 sec) 
Heartbeat CPU 0 instructions: 50000002 cycles: 17357411 heartbeat IPC: 2.88874 cumulative IPC: 2.88061 (Simulation time: 0 hr 7 min 56 sec) 

Warmup complete CPU 0 instructions: 50000002 cycles: 17357411 (Simulation time: 0 hr 7 min 56 sec) 

Heartbeat CPU 0 instructions: 60000002 cycles: 28207125 heartbeat IPC: 0.921683 cumulative IPC: 0.921683 (Simulation time: 0 hr 9 min 6 sec) 
Heartbeat CPU 0 instructions: 70000001 cycles: 39002238 heartbeat IPC: 0.926345 cumulative IPC: 0.924008 (Simulation time: 0 hr 10 min 7 sec) 
Heartbeat CPU 0 instructions: 80000000 cycles: 49806475 heartbeat IPC: 0.925563 cumulative IPC: 0.924526 (Simulation time: 0 hr 11 min 0 sec) 
Heartbeat CPU 0 instructions: 90000002 cycles: 60602335 heartbeat IPC: 0.926281 cumulative IPC: 0.924964 (Simulation time: 0 hr 11 min 52 sec) 
Heartbeat CPU 0 instructions: 100000001 cycles: 71397083 heartbeat IPC: 0.926376 cumulative IPC: 0.925246 (Simulation time: 0 hr 12 min 43 sec) 
Finished CPU 0 instructions: 50000003 cycles: 54039673 cumulative IPC: 0.925246 (Simulation time: 0 hr 12 min 43 sec) 

ChampSim completed all CPUs

Region of Interest Statistics

CPU 0 cumulative IPC: 0.925246 instructions: 50000003 cycles: 54039673

SHEET
IPC : 0.925246

L1D TOTAL     ACCESS:   24285910  HIT:   24223532  MISS:      62378
L1D LOAD      ACCESS:    8489057  HIT:    8454088  MISS:      34969
L1D RFO       ACCESS:    7438331  HIT:    7431064  MISS:       7267
L1D PREFETCH  ACCESS:    8358522  HIT:    8338380  MISS:      20142
L1D WRITEBACK ACCESS:          0  HIT:          0  MISS:          0
L1D PREFETCH  REQUESTED:    8489350  ISSUED:    8387929  USEFUL:       5506  USELESS:      14637
L1D AVERAGE MISS LATENCY: 16.9349 cycles
L1D

SHEET
L1D-total_access : 24285910
L1D-total_hit : 24223532
L1D-total_miss : 62378
L1D-load_access : 8489057
L1D-load_hit : 8454088
L1D-load_miss : 34969
L1D-rfo_access : 7438331
L1D-rfo_hit : 7431064
L1D-rfo_miss : 7267
L1D-prefetch_access : 8358522
L1D-prefetch_hit : 8338380
L1D-prefetch_miss : 20142
L1D-writeback_access : 0
L1D-writeback_hit : 0
L1D-writeback_miss : 0
L1D-prefetch_requested : 8489350
L1D-prefetch_issued : 8387929
L1D-prefetch_useful : 5506
L1D-prefetch_useless : 14637
L1D-Avg_miss_latency : 16.9349
L1D-Morteza_fill_l2_prefetches : 0

L1I TOTAL     ACCESS:    9062898  HIT:    5242106  MISS:    3820792
L1I LOAD      ACCESS:    9062898  HIT:    5242106  MISS:    3820792
L1I RFO       ACCESS:          0  HIT:          0  MISS:          0
L1I PREFETCH  ACCESS:          0  HIT:          0  MISS:          0
L1I WRITEBACK ACCESS:          0  HIT:          0  MISS:          0
L1I PREFETCH  REQUESTED:          0  ISSUED:          0  USEFUL:          0  USELESS:          0
L1I AVERAGE MISS LATENCY: 14.0797 cycles
L1I

SHEET
L1I-total_access : 9062898
L1I-total_hit : 5242106
L1I-total_miss : 3820792
L1I-load_access : 9062898
L1I-load_hit : 5242106
L1I-load_miss : 3820792
L1I-rfo_access : 0
L1I-rfo_hit : 0
L1I-rfo_miss : 0
L1I-prefetch_access : 0
L1I-prefetch_hit : 0
L1I-prefetch_miss : 0
L1I-writeback_access : 0
L1I-writeback_hit : 0
L1I-writeback_miss : 0
L1I-prefetch_requested : 0
L1I-prefetch_issued : 0
L1I-prefetch_useful : 0
L1I-prefetch_useless : 0
L1I-Avg_miss_latency : 14.0797
L1I-Morteza_fill_l2_prefetches : 0

L2C TOTAL     ACCESS:    7356655  HIT:    7354557  MISS:       2098
L2C LOAD      ACCESS:    3855599  HIT:    3854791  MISS:        808
L2C RFO       ACCESS:       7261  HIT:       7204  MISS:         57
L2C PREFETCH  ACCESS:    3478154  HIT:    3476936  MISS:       1218
L2C WRITEBACK ACCESS:      15641  HIT:      15626  MISS:         15
L2C PREFETCH  REQUESTED:    5570413  ISSUED:    5570413  USEFUL:        109  USELESS:        738
L2C AVERAGE MISS LATENCY: 105.551 cycles
L2C

SHEET
L2C-total_access : 7356655
L2C-total_hit : 7354557
L2C-total_miss : 2098
L2C-load_access : 3855599
L2C-load_hit : 3854791
L2C-load_miss : 808
L2C-rfo_access : 7261
L2C-rfo_hit : 7204
L2C-rfo_miss : 57
L2C-prefetch_access : 3478154
L2C-prefetch_hit : 3476936
L2C-prefetch_miss : 1218
L2C-writeback_access : 15641
L2C-writeback_hit : 15626
L2C-writeback_miss : 15
L2C-prefetch_requested : 5570413
L2C-prefetch_issued : 5570413
L2C-prefetch_useful : 109
L2C-prefetch_useless : 738
L2C-Avg_miss_latency : 105.551
L2C-Morteza_fill_l2_prefetches : 3457724

LLC TOTAL     ACCESS:    1134873  HIT:    1132388  MISS:       2485
LLC LOAD      ACCESS:        804  HIT:        315  MISS:        489
LLC RFO       ACCESS:         57  HIT:         28  MISS:         29
LLC PREFETCH  ACCESS:    1133087  HIT:    1131125  MISS:       1962
LLC WRITEBACK ACCESS:        925  HIT:        920  MISS:          5
LLC PREFETCH  REQUESTED:          0  ISSUED:          0  USEFUL:        184  USELESS:        636
LLC AVERAGE MISS LATENCY: 190.2 cycles
LLC

SHEET
LLC-total_access : 1134873
LLC-total_hit : 1132388
LLC-total_miss : 2485
LLC-load_access : 804
LLC-load_hit : 315
LLC-load_miss : 489
LLC-rfo_access : 57
LLC-rfo_hit : 28
LLC-rfo_miss : 29
LLC-prefetch_access : 1133087
LLC-prefetch_hit : 1131125
LLC-prefetch_miss : 1962
LLC-writeback_access : 925
LLC-writeback_hit : 920
LLC-writeback_miss : 5
LLC-prefetch_requested : 0
LLC-prefetch_issued : 0
LLC-prefetch_useful : 184
LLC-prefetch_useless : 636
LLC-Avg_miss_latency : 190.2
LLC-Morteza_fill_l2_prefetches : 1130211

Major fault: 0 Minor fault: 1926
CPU 0 L1D next line prefetcher final stats

DRAM Statistics
 CHANNEL 0
 RQ ROW_BUFFER_HIT:        468  ROW_BUFFER_MISS:       2012
 DBUS_CONGESTED:       1411
 WQ ROW_BUFFER_HIT:        356  ROW_BUFFER_MISS:       1225  FULL:          0

 AVG_CONGESTED_CYCLE: 6

CPU 0 Branch Prediction Accuracy: 99.8717% MPKI: 0.21174 Average ROB Occupancy at Mispredict: 149.07

Branch types
NOT_BRANCH: 41748421 83.4968%
BRANCH_DIRECT_JUMP: 468563 0.937126%
BRANCH_INDIRECT: 0 0%
BRANCH_CONDITIONAL: 5599749 11.1995%
BRANCH_DIRECT_CALL: 885105 1.77021%
BRANCH_INDIRECT_CALL: 206338 0.412676%
BRANCH_RETURN: 1091467 2.18293%
BRANCH_OTHER: 0 0%

