Initialize SIGNATURE TABLE
ST_SET: 1
ST_WAY: 256
ST_TAG_BIT: 16
ST_TAG_MASK: ffff

Initialize PATTERN TABLE
PT_SET: 512
PT_WAY: 4
SIG_DELTA_BIT: 7
C_SIG_BIT: 4
C_DELTA_BIT: 4

Initialize PREFETCH FILTER
FILTER_SET: 1024
MANA initialize 
tds: 2 tdm: 4
size MANA SINGLE: 74 KB
size MANA NULTIPLE: 43 KB
size HOBPT: 5 KB
size SRQ: 0.14502 KB
size SABs: 0.290039 KB
size prefetch queue: 0.453125 KB
total: 122.888 KB

*** ChampSim Multicore Out-of-Order Simulator ***

Warmup Instructions: 50000000
Simulation Instructions: 50000000
Number of CPUs: 1
LLC sets: 2048
LLC ways: 16
Off-chip DRAM Size: 4096 MB Channels: 1 Width: 64-bit Data Rate: 3200 MT/s

CPU 0 runs /home/mbaradaran/ChampSim/dpc3_traces/client_007.champsimtrace.xz
CPU 0 L1D next line prefetcher
Heartbeat CPU 0 instructions: 10000001 cycles: 3642223 heartbeat IPC: 2.74558 cumulative IPC: 2.74558 (Simulation time: 0 hr 1 min 13 sec) 
Heartbeat CPU 0 instructions: 20000003 cycles: 7034167 heartbeat IPC: 2.94816 cumulative IPC: 2.84327 (Simulation time: 0 hr 2 min 26 sec) 
Heartbeat CPU 0 instructions: 30000000 cycles: 10905994 heartbeat IPC: 2.58276 cumulative IPC: 2.75078 (Simulation time: 0 hr 3 min 49 sec) 
Heartbeat CPU 0 instructions: 40000003 cycles: 15066203 heartbeat IPC: 2.40373 cumulative IPC: 2.65495 (Simulation time: 0 hr 5 min 9 sec) 
Heartbeat CPU 0 instructions: 50000002 cycles: 18471436 heartbeat IPC: 2.93666 cumulative IPC: 2.70688 (Simulation time: 0 hr 6 min 26 sec) 

Warmup complete CPU 0 instructions: 50000002 cycles: 18471436 (Simulation time: 0 hr 6 min 26 sec) 

Heartbeat CPU 0 instructions: 60000003 cycles: 25468033 heartbeat IPC: 1.42927 cumulative IPC: 1.42927 (Simulation time: 0 hr 7 min 44 sec) 
Heartbeat CPU 0 instructions: 70000003 cycles: 34366549 heartbeat IPC: 1.12378 cumulative IPC: 1.25825 (Simulation time: 0 hr 9 min 12 sec) 
Heartbeat CPU 0 instructions: 80000002 cycles: 39717541 heartbeat IPC: 1.86881 cumulative IPC: 1.41202 (Simulation time: 0 hr 10 min 12 sec) 
Heartbeat CPU 0 instructions: 90000002 cycles: 47444652 heartbeat IPC: 1.29414 cumulative IPC: 1.38059 (Simulation time: 0 hr 11 min 29 sec) 
Heartbeat CPU 0 instructions: 100000002 cycles: 56424731 heartbeat IPC: 1.11358 cumulative IPC: 1.31741 (Simulation time: 0 hr 12 min 40 sec) 
Finished CPU 0 instructions: 50000000 cycles: 37953295 cumulative IPC: 1.31741 (Simulation time: 0 hr 12 min 40 sec) 

ChampSim completed all CPUs

Region of Interest Statistics

CPU 0 cumulative IPC: 1.31741 instructions: 50000000 cycles: 37953295

SHEET
IPC : 1.31741

L1D TOTAL     ACCESS:   21281692  HIT:   20112292  MISS:    1169400
L1D LOAD      ACCESS:    8410714  HIT:    7871695  MISS:     539019
L1D RFO       ACCESS:    4870706  HIT:    4779643  MISS:      91063
L1D PREFETCH  ACCESS:    8000272  HIT:    7460954  MISS:     539318
L1D WRITEBACK ACCESS:          0  HIT:          0  MISS:          0
L1D PREFETCH  REQUESTED:    8463162  ISSUED:    8220533  USEFUL:     158614  USELESS:     380720
L1D AVERAGE MISS LATENCY: 34.5074 cycles
L1D

SHEET
L1D-total_access : 21281692
L1D-total_hit : 20112292
L1D-total_miss : 1169400
L1D-load_access : 8410714
L1D-load_hit : 7871695
L1D-load_miss : 539019
L1D-rfo_access : 4870706
L1D-rfo_hit : 4779643
L1D-rfo_miss : 91063
L1D-prefetch_access : 8000272
L1D-prefetch_hit : 7460954
L1D-prefetch_miss : 539318
L1D-writeback_access : 0
L1D-writeback_hit : 0
L1D-writeback_miss : 0
L1D-prefetch_requested : 8463162
L1D-prefetch_issued : 8220533
L1D-prefetch_useful : 158614
L1D-prefetch_useless : 380720
L1D-Avg_miss_latency : 34.5074
L1D-Morteza_fill_l2_prefetches : 0

L1I TOTAL     ACCESS:   14976884  HIT:   13872035  MISS:    1104849
L1I LOAD      ACCESS:    9083783  HIT:    8954323  MISS:     129460
L1I RFO       ACCESS:          0  HIT:          0  MISS:          0
L1I PREFETCH  ACCESS:    5893101  HIT:    4917712  MISS:     975389
L1I WRITEBACK ACCESS:          0  HIT:          0  MISS:          0
L1I PREFETCH  REQUESTED:    6518617  ISSUED:    6406595  USEFUL:     759733  USELESS:     215611
L1I AVERAGE MISS LATENCY: 16.2172 cycles
L1I

SHEET
L1I-total_access : 14976884
L1I-total_hit : 13872035
L1I-total_miss : 1104849
L1I-load_access : 9083783
L1I-load_hit : 8954323
L1I-load_miss : 129460
L1I-rfo_access : 0
L1I-rfo_hit : 0
L1I-rfo_miss : 0
L1I-prefetch_access : 5893101
L1I-prefetch_hit : 4917712
L1I-prefetch_miss : 975389
L1I-writeback_access : 0
L1I-writeback_hit : 0
L1I-writeback_miss : 0
L1I-prefetch_requested : 6518617
L1I-prefetch_issued : 6406595
L1I-prefetch_useful : 759733
L1I-prefetch_useless : 215611
L1I-Avg_miss_latency : 16.2172
L1I-Morteza_fill_l2_prefetches : 0

L2C TOTAL     ACCESS:    3276652  HIT:    3069754  MISS:     206898
L2C LOAD      ACCESS:     613933  HIT:     544391  MISS:      69542
L2C RFO       ACCESS:      89510  HIT:      47842  MISS:      41668
L2C PREFETCH  ACCESS:    2245497  HIT:    2150109  MISS:      95388
L2C WRITEBACK ACCESS:     327712  HIT:     327412  MISS:        300
L2C PREFETCH  REQUESTED:    2524910  ISSUED:    2520303  USEFUL:       9629  USELESS:      85262
L2C AVERAGE MISS LATENCY: 125.801 cycles
L2C

SHEET
L2C-total_access : 3276652
L2C-total_hit : 3069754
L2C-total_miss : 206898
L2C-load_access : 613933
L2C-load_hit : 544391
L2C-load_miss : 69542
L2C-rfo_access : 89510
L2C-rfo_hit : 47842
L2C-rfo_miss : 41668
L2C-prefetch_access : 2245497
L2C-prefetch_hit : 2150109
L2C-prefetch_miss : 95388
L2C-writeback_access : 327712
L2C-writeback_hit : 327412
L2C-writeback_miss : 300
L2C-prefetch_requested : 2524910
L2C-prefetch_issued : 2520303
L2C-prefetch_useful : 9629
L2C-prefetch_useless : 85262
L2C-Avg_miss_latency : 125.801
L2C-Morteza_fill_l2_prefetches : 688952

LLC TOTAL     ACCESS:     973988  HIT:     805464  MISS:     168524
LLC LOAD      ACCESS:      69455  HIT:      34124  MISS:      35331
LLC RFO       ACCESS:      41668  HIT:       7204  MISS:      34464
LLC PREFETCH  ACCESS:     788366  HIT:     689933  MISS:      98433
LLC WRITEBACK ACCESS:      74499  HIT:      74203  MISS:        296
LLC PREFETCH  REQUESTED:          0  ISSUED:          0  USEFUL:      18478  USELESS:      80582
LLC AVERAGE MISS LATENCY: 182.303 cycles
LLC

SHEET
LLC-total_access : 973988
LLC-total_hit : 805464
LLC-total_miss : 168524
LLC-load_access : 69455
LLC-load_hit : 34124
LLC-load_miss : 35331
LLC-rfo_access : 41668
LLC-rfo_hit : 7204
LLC-rfo_miss : 34464
LLC-prefetch_access : 788366
LLC-prefetch_hit : 689933
LLC-prefetch_miss : 98433
LLC-writeback_access : 74499
LLC-writeback_hit : 74203
LLC-writeback_miss : 296
LLC-prefetch_requested : 0
LLC-prefetch_issued : 0
LLC-prefetch_useful : 18478
LLC-prefetch_useless : 80582
LLC-Avg_miss_latency : 182.303
LLC-Morteza_fill_l2_prefetches : 638452

Major fault: 0 Minor fault: 4469



Printing Logs
statHeadFound: 621771
statHeadMissing: 1417192
statStreamBufferHit: 11633032
statPrefetchEntryFound: 4370523
statCompactorMatch: 12596609
statStreamTrackerLookup: 13671995
statRecord: 1075386
statGetPointer: 2038963
statEnqueuePrefetch: 12962013
statPrefetchQueueIsFull: 21698
StreamBufferHitRate: 0.850866
Regions' size: 4990
next_region_correct: 677468
next_region_wrong: 392910
next_region_correct_prediction: 0.632924
statStreamBufferLookups: 984383640
statL1iLookups: 103696104
statCompactorLookups: 492191820
morteza: start

SHEET
mana_table_access_counter : 1779046
mana_table_multiple_access_counter : 4318186
hobp_table_access_counter : 25018539
sab_access_counter : 16003555
srq_access_counter : 12357735

morteza: end
CPU 0 L1D next line prefetcher final stats

DRAM Statistics
 CHANNEL 0
 RQ ROW_BUFFER_HIT:      35966  ROW_BUFFER_MISS:     132257
 DBUS_CONGESTED:      94366
 WQ ROW_BUFFER_HIT:      13216  ROW_BUFFER_MISS:      45024  FULL:          0

 AVG_CONGESTED_CYCLE: 5

CPU 0 Branch Prediction Accuracy: 98.8607% MPKI: 1.8623 Average ROB Occupancy at Mispredict: 111.59

Branch types
NOT_BRANCH: 41826773 83.6535%
BRANCH_DIRECT_JUMP: 735330 1.47066%
BRANCH_INDIRECT: 269194 0.538388%
BRANCH_CONDITIONAL: 5957947 11.9159%
BRANCH_DIRECT_CALL: 368758 0.737516%
BRANCH_INDIRECT_CALL: 226975 0.45395%
BRANCH_RETURN: 614696 1.22939%
BRANCH_OTHER: 0 0%

