Initialize SIGNATURE TABLE
ST_SET: 1
ST_WAY: 256
ST_TAG_BIT: 16
ST_TAG_MASK: ffff

Initialize PATTERN TABLE
PT_SET: 512
PT_WAY: 4
SIG_DELTA_BIT: 7
C_SIG_BIT: 4
C_DELTA_BIT: 4

Initialize PREFETCH FILTER
FILTER_SET: 1024
MANA initialize 
tds: 2 tdm: 4
size MANA SINGLE: 74 KB
size MANA NULTIPLE: 43 KB
size HOBPT: 5 KB
size SRQ: 0.14502 KB
size SABs: 0.290039 KB
size prefetch queue: 0.453125 KB
total: 122.888 KB

*** ChampSim Multicore Out-of-Order Simulator ***

Warmup Instructions: 50000000
Simulation Instructions: 50000000
Number of CPUs: 1
LLC sets: 2048
LLC ways: 16
Off-chip DRAM Size: 4096 MB Channels: 1 Width: 64-bit Data Rate: 3200 MT/s

CPU 0 runs /home/mbaradaran/ChampSim/dpc3_traces/server_038.champsimtrace.xz
CPU 0 L1D next line prefetcher
Heartbeat CPU 0 instructions: 10000001 cycles: 3322067 heartbeat IPC: 3.01017 cumulative IPC: 3.01017 (Simulation time: 0 hr 1 min 22 sec) 
Heartbeat CPU 0 instructions: 20000003 cycles: 6647208 heartbeat IPC: 3.00739 cumulative IPC: 3.00878 (Simulation time: 0 hr 2 min 43 sec) 
Heartbeat CPU 0 instructions: 30000003 cycles: 9968368 heartbeat IPC: 3.011 cumulative IPC: 3.00952 (Simulation time: 0 hr 4 min 3 sec) 
Heartbeat CPU 0 instructions: 40000001 cycles: 13293707 heartbeat IPC: 3.00721 cumulative IPC: 3.00894 (Simulation time: 0 hr 5 min 27 sec) 
Heartbeat CPU 0 instructions: 50000001 cycles: 16617131 heartbeat IPC: 3.00894 cumulative IPC: 3.00894 (Simulation time: 0 hr 6 min 52 sec) 

Warmup complete CPU 0 instructions: 50000001 cycles: 16617131 (Simulation time: 0 hr 6 min 52 sec) 

Heartbeat CPU 0 instructions: 60000002 cycles: 23063323 heartbeat IPC: 1.5513 cumulative IPC: 1.5513 (Simulation time: 0 hr 8 min 19 sec) 
Heartbeat CPU 0 instructions: 70000001 cycles: 29467082 heartbeat IPC: 1.56158 cumulative IPC: 1.55643 (Simulation time: 0 hr 9 min 44 sec) 
Heartbeat CPU 0 instructions: 80000000 cycles: 35882851 heartbeat IPC: 1.55866 cumulative IPC: 1.55717 (Simulation time: 0 hr 11 min 8 sec) 
Heartbeat CPU 0 instructions: 90000001 cycles: 42300598 heartbeat IPC: 1.55818 cumulative IPC: 1.55742 (Simulation time: 0 hr 12 min 28 sec) 
*** Reached end of trace for Core: 0 Repeating trace: /home/mbaradaran/ChampSim/dpc3_traces/server_038.champsimtrace.xz
Heartbeat CPU 0 instructions: 100000002 cycles: 48730429 heartbeat IPC: 1.55525 cumulative IPC: 1.55699 (Simulation time: 0 hr 13 min 47 sec) 
Finished CPU 0 instructions: 50000001 cycles: 32113298 cumulative IPC: 1.55699 (Simulation time: 0 hr 13 min 47 sec) 

ChampSim completed all CPUs

Region of Interest Statistics

CPU 0 cumulative IPC: 1.55699 instructions: 50000001 cycles: 32113298

SHEET
IPC : 1.55699

L1D TOTAL     ACCESS:   18711028  HIT:   17728660  MISS:     982368
L1D LOAD      ACCESS:    6368530  HIT:    5874914  MISS:     493616
L1D RFO       ACCESS:    6210680  HIT:    6146402  MISS:      64278
L1D PREFETCH  ACCESS:    6131818  HIT:    5707344  MISS:     424474
L1D WRITEBACK ACCESS:          0  HIT:          0  MISS:          0
L1D PREFETCH  REQUESTED:    6404779  ISSUED:    6252262  USEFUL:     117711  USELESS:     306766
L1D AVERAGE MISS LATENCY: 29.1463 cycles
L1D

SHEET
L1D-total_access : 18711028
L1D-total_hit : 17728660
L1D-total_miss : 982368
L1D-load_access : 6368530
L1D-load_hit : 5874914
L1D-load_miss : 493616
L1D-rfo_access : 6210680
L1D-rfo_hit : 6146402
L1D-rfo_miss : 64278
L1D-prefetch_access : 6131818
L1D-prefetch_hit : 5707344
L1D-prefetch_miss : 424474
L1D-writeback_access : 0
L1D-writeback_hit : 0
L1D-writeback_miss : 0
L1D-prefetch_requested : 6404779
L1D-prefetch_issued : 6252262
L1D-prefetch_useful : 117711
L1D-prefetch_useless : 306766
L1D-Avg_miss_latency : 29.1463
L1D-Morteza_fill_l2_prefetches : 0

L1I TOTAL     ACCESS:   16877071  HIT:   12618255  MISS:    4258816
L1I LOAD      ACCESS:    9367372  HIT:    9142619  MISS:     224753
L1I RFO       ACCESS:          0  HIT:          0  MISS:          0
L1I PREFETCH  ACCESS:    7509699  HIT:    3475636  MISS:    4034063
L1I WRITEBACK ACCESS:          0  HIT:          0  MISS:          0
L1I PREFETCH  REQUESTED:    7766005  ISSUED:    7713155  USEFUL:    3755941  USELESS:     278163
L1I AVERAGE MISS LATENCY: 14.7386 cycles
L1I

SHEET
L1I-total_access : 16877071
L1I-total_hit : 12618255
L1I-total_miss : 4258816
L1I-load_access : 9367372
L1I-load_hit : 9142619
L1I-load_miss : 224753
L1I-rfo_access : 0
L1I-rfo_hit : 0
L1I-rfo_miss : 0
L1I-prefetch_access : 7509699
L1I-prefetch_hit : 3475636
L1I-prefetch_miss : 4034063
L1I-writeback_access : 0
L1I-writeback_hit : 0
L1I-writeback_miss : 0
L1I-prefetch_requested : 7766005
L1I-prefetch_issued : 7713155
L1I-prefetch_useful : 3755941
L1I-prefetch_useless : 278163
L1I-Avg_miss_latency : 14.7386
L1I-Morteza_fill_l2_prefetches : 0

L2C TOTAL     ACCESS:    7575512  HIT:    7266874  MISS:     308638
L2C LOAD      ACCESS:     622046  HIT:     484819  MISS:     137227
L2C RFO       ACCESS:      64028  HIT:      36223  MISS:      27805
L2C PREFETCH  ACCESS:    6597788  HIT:    6455411  MISS:     142377
L2C WRITEBACK ACCESS:     291650  HIT:     290421  MISS:       1229
L2C PREFETCH  REQUESTED:    6537500  ISSUED:    6523154  USEFUL:       6302  USELESS:     135951
L2C AVERAGE MISS LATENCY: 46.5393 cycles
L2C

SHEET
L2C-total_access : 7575512
L2C-total_hit : 7266874
L2C-total_miss : 308638
L2C-load_access : 622046
L2C-load_hit : 484819
L2C-load_miss : 137227
L2C-rfo_access : 64028
L2C-rfo_hit : 36223
L2C-rfo_miss : 27805
L2C-prefetch_access : 6597788
L2C-prefetch_hit : 6455411
L2C-prefetch_miss : 142377
L2C-writeback_access : 291650
L2C-writeback_hit : 290421
L2C-writeback_miss : 1229
L2C-prefetch_requested : 6537500
L2C-prefetch_issued : 6523154
L2C-prefetch_useful : 6302
L2C-prefetch_useless : 135951
L2C-Avg_miss_latency : 46.5393
L2C-Morteza_fill_l2_prefetches : 2068099

LLC TOTAL     ACCESS:    1742770  HIT:    1687819  MISS:      54951
LLC LOAD      ACCESS:     137211  HIT:     123959  MISS:      13252
LLC RFO       ACCESS:      27805  HIT:      22634  MISS:       5171
LLC PREFETCH  ACCESS:    1437251  HIT:    1401252  MISS:      35999
LLC WRITEBACK ACCESS:     140503  HIT:     139974  MISS:        529
LLC PREFETCH  REQUESTED:          0  ISSUED:          0  USEFUL:       3065  USELESS:      33417
LLC AVERAGE MISS LATENCY: 168.456 cycles
LLC

SHEET
LLC-total_access : 1742770
LLC-total_hit : 1687819
LLC-total_miss : 54951
LLC-load_access : 137211
LLC-load_hit : 123959
LLC-load_miss : 13252
LLC-rfo_access : 27805
LLC-rfo_hit : 22634
LLC-rfo_miss : 5171
LLC-prefetch_access : 1437251
LLC-prefetch_hit : 1401252
LLC-prefetch_miss : 35999
LLC-writeback_access : 140503
LLC-writeback_hit : 139974
LLC-writeback_miss : 529
LLC-prefetch_requested : 0
LLC-prefetch_issued : 0
LLC-prefetch_useful : 3065
LLC-prefetch_useless : 33417
LLC-Avg_miss_latency : 168.456
LLC-Morteza_fill_l2_prefetches : 1277499

Major fault: 0 Minor fault: 5575



Printing Logs
statHeadFound: 300747
statHeadMissing: 515548
statStreamBufferHit: 13771302
statPrefetchEntryFound: 4880736
statCompactorMatch: 11339043
statStreamTrackerLookup: 14587597
statRecord: 3248554
statGetPointer: 816295
statEnqueuePrefetch: 15324727
statPrefetchQueueIsFull: 55
StreamBufferHitRate: 0.944042
Regions' size: 876
next_region_correct: 2611014
next_region_wrong: 636646
next_region_correct_prediction: 0.803968
statStreamBufferLookups: 1050306984
statL1iLookups: 122597816
statCompactorLookups: 525153492
morteza: start

SHEET
mana_table_access_counter : 5987394
mana_table_multiple_access_counter : 2443715
hobp_table_access_counter : 24407035
sab_access_counter : 18652038
srq_access_counter : 16763337

morteza: end
CPU 0 L1D next line prefetcher final stats

DRAM Statistics
 CHANNEL 0
 RQ ROW_BUFFER_HIT:       8870  ROW_BUFFER_MISS:      45551
 DBUS_CONGESTED:      23977
 WQ ROW_BUFFER_HIT:       1211  ROW_BUFFER_MISS:      11271  FULL:          0

 AVG_CONGESTED_CYCLE: 5

CPU 0 Branch Prediction Accuracy: 99.9279% MPKI: 0.12968 Average ROB Occupancy at Mispredict: 245.039

Branch types
NOT_BRANCH: 41006327 82.0127%
BRANCH_DIRECT_JUMP: 541914 1.08383%
BRANCH_INDIRECT: 59690 0.11938%
BRANCH_CONDITIONAL: 5915848 11.8317%
BRANCH_DIRECT_CALL: 1003589 2.00718%
BRANCH_INDIRECT_CALL: 234499 0.468998%
BRANCH_RETURN: 1238071 2.47614%
BRANCH_OTHER: 0 0%

