Initialize SIGNATURE TABLE
ST_SET: 1
ST_WAY: 256
ST_TAG_BIT: 16
ST_TAG_MASK: ffff

Initialize PATTERN TABLE
PT_SET: 512
PT_WAY: 4
SIG_DELTA_BIT: 7
C_SIG_BIT: 4
C_DELTA_BIT: 4

Initialize PREFETCH FILTER
FILTER_SET: 1024
MANA initialize 
tds: 2 tdm: 4
size MANA SINGLE: 74 KB
size MANA NULTIPLE: 43 KB
size HOBPT: 5 KB
size SRQ: 0.14502 KB
size SABs: 0.290039 KB
size prefetch queue: 0.453125 KB
total: 122.888 KB

*** ChampSim Multicore Out-of-Order Simulator ***

Warmup Instructions: 50000000
Simulation Instructions: 50000000
Number of CPUs: 1
LLC sets: 2048
LLC ways: 16
Off-chip DRAM Size: 4096 MB Channels: 1 Width: 64-bit Data Rate: 3200 MT/s

CPU 0 runs /home/mbaradaran/ChampSim/dpc3_traces/server_025.champsimtrace.xz
CPU 0 L1D next line prefetcher
Heartbeat CPU 0 instructions: 10000003 cycles: 3535857 heartbeat IPC: 2.82817 cumulative IPC: 2.82817 (Simulation time: 0 hr 1 min 29 sec) 
Heartbeat CPU 0 instructions: 20000000 cycles: 7078787 heartbeat IPC: 2.82252 cumulative IPC: 2.82534 (Simulation time: 0 hr 2 min 54 sec) 
Heartbeat CPU 0 instructions: 30000001 cycles: 10613504 heartbeat IPC: 2.82908 cumulative IPC: 2.82659 (Simulation time: 0 hr 4 min 15 sec) 
Heartbeat CPU 0 instructions: 40000003 cycles: 14154132 heartbeat IPC: 2.82436 cumulative IPC: 2.82603 (Simulation time: 0 hr 5 min 39 sec) 
Heartbeat CPU 0 instructions: 50000001 cycles: 17692840 heartbeat IPC: 2.82589 cumulative IPC: 2.826 (Simulation time: 0 hr 7 min 7 sec) 

Warmup complete CPU 0 instructions: 50000001 cycles: 17692840 (Simulation time: 0 hr 7 min 7 sec) 

Heartbeat CPU 0 instructions: 60000002 cycles: 24789714 heartbeat IPC: 1.40907 cumulative IPC: 1.40907 (Simulation time: 0 hr 8 min 32 sec) 
Heartbeat CPU 0 instructions: 70000000 cycles: 31984292 heartbeat IPC: 1.38994 cumulative IPC: 1.39944 (Simulation time: 0 hr 9 min 53 sec) 
Heartbeat CPU 0 instructions: 80000002 cycles: 39079851 heartbeat IPC: 1.40933 cumulative IPC: 1.40272 (Simulation time: 0 hr 11 min 12 sec) 
Heartbeat CPU 0 instructions: 90000001 cycles: 45773308 heartbeat IPC: 1.494 cumulative IPC: 1.42448 (Simulation time: 0 hr 12 min 32 sec) 
Heartbeat CPU 0 instructions: 100000003 cycles: 52144769 heartbeat IPC: 1.5695 cumulative IPC: 1.4513 (Simulation time: 0 hr 14 min 0 sec) 
Finished CPU 0 instructions: 50000002 cycles: 34451929 cumulative IPC: 1.4513 (Simulation time: 0 hr 14 min 0 sec) 

ChampSim completed all CPUs

Region of Interest Statistics

CPU 0 cumulative IPC: 1.4513 instructions: 50000002 cycles: 34451929

SHEET
IPC : 1.4513

L1D TOTAL     ACCESS:   20303842  HIT:   18878129  MISS:    1425713
L1D LOAD      ACCESS:    7113936  HIT:    6495721  MISS:     618215
L1D RFO       ACCESS:    6387145  HIT:    6138937  MISS:     248208
L1D PREFETCH  ACCESS:    6802761  HIT:    6243471  MISS:     559290
L1D WRITEBACK ACCESS:          0  HIT:          0  MISS:          0
L1D PREFETCH  REQUESTED:    7155518  ISSUED:    6983463  USEFUL:     131801  USELESS:     427480
L1D AVERAGE MISS LATENCY: 23.4405 cycles
L1D

SHEET
L1D-total_access : 20303842
L1D-total_hit : 18878129
L1D-total_miss : 1425713
L1D-load_access : 7113936
L1D-load_hit : 6495721
L1D-load_miss : 618215
L1D-rfo_access : 6387145
L1D-rfo_hit : 6138937
L1D-rfo_miss : 248208
L1D-prefetch_access : 6802761
L1D-prefetch_hit : 6243471
L1D-prefetch_miss : 559290
L1D-writeback_access : 0
L1D-writeback_hit : 0
L1D-writeback_miss : 0
L1D-prefetch_requested : 7155518
L1D-prefetch_issued : 6983463
L1D-prefetch_useful : 131801
L1D-prefetch_useless : 427480
L1D-Avg_miss_latency : 23.4405
L1D-Morteza_fill_l2_prefetches : 0

L1I TOTAL     ACCESS:   17862671  HIT:   13860686  MISS:    4001985
L1I LOAD      ACCESS:    9342041  HIT:    8789854  MISS:     552187
L1I RFO       ACCESS:          0  HIT:          0  MISS:          0
L1I PREFETCH  ACCESS:    8520630  HIT:    5070832  MISS:    3449798
L1I WRITEBACK ACCESS:          0  HIT:          0  MISS:          0
L1I PREFETCH  REQUESTED:    9314499  ISSUED:    9168983  USEFUL:    2135266  USELESS:    1314530
L1I AVERAGE MISS LATENCY: 17.0135 cycles
L1I

SHEET
L1I-total_access : 17862671
L1I-total_hit : 13860686
L1I-total_miss : 4001985
L1I-load_access : 9342041
L1I-load_hit : 8789854
L1I-load_miss : 552187
L1I-rfo_access : 0
L1I-rfo_hit : 0
L1I-rfo_miss : 0
L1I-prefetch_access : 8520630
L1I-prefetch_hit : 5070832
L1I-prefetch_miss : 3449798
L1I-writeback_access : 0
L1I-writeback_hit : 0
L1I-writeback_miss : 0
L1I-prefetch_requested : 9314499
L1I-prefetch_issued : 9168983
L1I-prefetch_useful : 2135266
L1I-prefetch_useless : 1314530
L1I-Avg_miss_latency : 17.0135
L1I-Morteza_fill_l2_prefetches : 0

L2C TOTAL     ACCESS:    7291406  HIT:    6612272  MISS:     679134
L2C LOAD      ACCESS:     987126  HIT:     836582  MISS:     150544
L2C RFO       ACCESS:     246640  HIT:     165589  MISS:      81051
L2C PREFETCH  ACCESS:    5560989  HIT:    5119986  MISS:     441003
L2C WRITEBACK ACCESS:     496651  HIT:     490115  MISS:       6536
L2C PREFETCH  REQUESTED:    5974968  ISSUED:    5961151  USEFUL:      32387  USELESS:     407772
L2C AVERAGE MISS LATENCY: 38.2874 cycles
L2C

SHEET
L2C-total_access : 7291406
L2C-total_hit : 6612272
L2C-total_miss : 679134
L2C-load_access : 987126
L2C-load_hit : 836582
L2C-load_miss : 150544
L2C-rfo_access : 246640
L2C-rfo_hit : 165589
L2C-rfo_miss : 81051
L2C-prefetch_access : 5560989
L2C-prefetch_hit : 5119986
L2C-prefetch_miss : 441003
L2C-writeback_access : 496651
L2C-writeback_hit : 490115
L2C-writeback_miss : 6536
L2C-prefetch_requested : 5974968
L2C-prefetch_issued : 5961151
L2C-prefetch_useful : 32387
L2C-prefetch_useless : 407772
L2C-Avg_miss_latency : 38.2874
L2C-Morteza_fill_l2_prefetches : 1398661

LLC TOTAL     ACCESS:    2363762  HIT:    2334445  MISS:      29317
LLC LOAD      ACCESS:     150461  HIT:     147151  MISS:       3310
LLC RFO       ACCESS:      81041  HIT:      70273  MISS:      10768
LLC PREFETCH  ACCESS:    1996966  HIT:    1981914  MISS:      15052
LLC WRITEBACK ACCESS:     135294  HIT:     135107  MISS:        187
LLC PREFETCH  REQUESTED:          0  ISSUED:          0  USEFUL:       1199  USELESS:      12640
LLC AVERAGE MISS LATENCY: 180.252 cycles
LLC

SHEET
LLC-total_access : 2363762
LLC-total_hit : 2334445
LLC-total_miss : 29317
LLC-load_access : 150461
LLC-load_hit : 147151
LLC-load_miss : 3310
LLC-rfo_access : 81041
LLC-rfo_hit : 70273
LLC-rfo_miss : 10768
LLC-prefetch_access : 1996966
LLC-prefetch_hit : 1981914
LLC-prefetch_miss : 15052
LLC-writeback_access : 135294
LLC-writeback_hit : 135107
LLC-writeback_miss : 187
LLC-prefetch_requested : 0
LLC-prefetch_issued : 0
LLC-prefetch_useful : 1199
LLC-prefetch_useless : 12640
LLC-Avg_miss_latency : 180.252
LLC-Morteza_fill_l2_prefetches : 1561790

Major fault: 0 Minor fault: 2520



Printing Logs
statHeadFound: 712648
statHeadMissing: 770094
statStreamBufferHit: 12926092
statPrefetchEntryFound: 6169037
statCompactorMatch: 11763698
statStreamTrackerLookup: 14408834
statRecord: 2645136
statGetPointer: 1482742
statEnqueuePrefetch: 18389940
statPrefetchQueueIsFull: 7283
StreamBufferHitRate: 0.897095
Regions' size: 2241
next_region_correct: 1867281
next_region_wrong: 775596
next_region_correct_prediction: 0.706533
statStreamBufferLookups: 1037436048
statL1iLookups: 147119520
statCompactorLookups: 518718024
morteza: start

SHEET
mana_table_access_counter : 4737497
mana_table_multiple_access_counter : 4800249
hobp_table_access_counter : 28624860
sab_access_counter : 19095129
srq_access_counter : 15668550

morteza: end
CPU 0 L1D next line prefetcher final stats

DRAM Statistics
 CHANNEL 0
 RQ ROW_BUFFER_HIT:       9410  ROW_BUFFER_MISS:      19717
 DBUS_CONGESTED:      19301
 WQ ROW_BUFFER_HIT:       1393  ROW_BUFFER_MISS:      11922  FULL:          0

 AVG_CONGESTED_CYCLE: 6

CPU 0 Branch Prediction Accuracy: 99.8142% MPKI: 0.34676 Average ROB Occupancy at Mispredict: 174.422

Branch types
NOT_BRANCH: 40668768 81.3375%
BRANCH_DIRECT_JUMP: 531700 1.0634%
BRANCH_INDIRECT: 199025 0.39805%
BRANCH_CONDITIONAL: 6211473 12.4229%
BRANCH_DIRECT_CALL: 1010908 2.02182%
BRANCH_INDIRECT_CALL: 183501 0.367002%
BRANCH_RETURN: 1194411 2.38882%
BRANCH_OTHER: 0 0%

