Initialize SIGNATURE TABLE
ST_SET: 1
ST_WAY: 256
ST_TAG_BIT: 16
ST_TAG_MASK: ffff

Initialize PATTERN TABLE
PT_SET: 512
PT_WAY: 4
SIG_DELTA_BIT: 7
C_SIG_BIT: 4
C_DELTA_BIT: 4

Initialize PREFETCH FILTER
FILTER_SET: 1024
MANA initialize 
tds: 2 tdm: 4
size MANA SINGLE: 74 KB
size MANA NULTIPLE: 43 KB
size HOBPT: 5 KB
size SRQ: 0.14502 KB
size SABs: 0.290039 KB
size prefetch queue: 0.453125 KB
total: 122.888 KB

*** ChampSim Multicore Out-of-Order Simulator ***

Warmup Instructions: 50000000
Simulation Instructions: 50000000
Number of CPUs: 1
LLC sets: 2048
LLC ways: 16
Off-chip DRAM Size: 4096 MB Channels: 1 Width: 64-bit Data Rate: 3200 MT/s

CPU 0 runs /home/mbaradaran/ChampSim/dpc3_traces/server_016.champsimtrace.xz
CPU 0 L1D next line prefetcher
Heartbeat CPU 0 instructions: 10000000 cycles: 3503548 heartbeat IPC: 2.85425 cumulative IPC: 2.85425 (Simulation time: 0 hr 1 min 31 sec) 
Heartbeat CPU 0 instructions: 20000000 cycles: 7007508 heartbeat IPC: 2.85391 cumulative IPC: 2.85408 (Simulation time: 0 hr 2 min 57 sec) 
Heartbeat CPU 0 instructions: 30000001 cycles: 10507022 heartbeat IPC: 2.85754 cumulative IPC: 2.85523 (Simulation time: 0 hr 4 min 25 sec) 
Heartbeat CPU 0 instructions: 40000000 cycles: 13806639 heartbeat IPC: 3.03065 cumulative IPC: 2.89716 (Simulation time: 0 hr 5 min 7 sec) 
Heartbeat CPU 0 instructions: 50000002 cycles: 17042104 heartbeat IPC: 3.09075 cumulative IPC: 2.93391 (Simulation time: 0 hr 5 min 37 sec) 

Warmup complete CPU 0 instructions: 50000002 cycles: 17042104 (Simulation time: 0 hr 5 min 37 sec) 

Heartbeat CPU 0 instructions: 60000001 cycles: 25036102 heartbeat IPC: 1.25094 cumulative IPC: 1.25094 (Simulation time: 0 hr 6 min 14 sec) 
Heartbeat CPU 0 instructions: 70000001 cycles: 32056572 heartbeat IPC: 1.42441 cumulative IPC: 1.33205 (Simulation time: 0 hr 7 min 32 sec) 
Heartbeat CPU 0 instructions: 80000000 cycles: 39195490 heartbeat IPC: 1.40077 cumulative IPC: 1.35419 (Simulation time: 0 hr 8 min 51 sec) 
Heartbeat CPU 0 instructions: 90000000 cycles: 46123752 heartbeat IPC: 1.44336 cumulative IPC: 1.37544 (Simulation time: 0 hr 10 min 11 sec) 
Heartbeat CPU 0 instructions: 100000000 cycles: 53184820 heartbeat IPC: 1.41622 cumulative IPC: 1.3834 (Simulation time: 0 hr 11 min 36 sec) 
Finished CPU 0 instructions: 50000002 cycles: 36142717 cumulative IPC: 1.3834 (Simulation time: 0 hr 11 min 36 sec) 

ChampSim completed all CPUs

Region of Interest Statistics

CPU 0 cumulative IPC: 1.3834 instructions: 50000002 cycles: 36142717

SHEET
IPC : 1.3834

L1D TOTAL     ACCESS:   18207860  HIT:   16940077  MISS:    1267783
L1D LOAD      ACCESS:    6642628  HIT:    6069828  MISS:     572800
L1D RFO       ACCESS:    5200299  HIT:    4978241  MISS:     222058
L1D PREFETCH  ACCESS:    6364933  HIT:    5892008  MISS:     472925
L1D WRITEBACK ACCESS:          0  HIT:          0  MISS:          0
L1D PREFETCH  REQUESTED:    6684591  ISSUED:    6582407  USEFUL:     113616  USELESS:     359327
L1D AVERAGE MISS LATENCY: 23.5069 cycles
L1D

SHEET
L1D-total_access : 18207860
L1D-total_hit : 16940077
L1D-total_miss : 1267783
L1D-load_access : 6642628
L1D-load_hit : 6069828
L1D-load_miss : 572800
L1D-rfo_access : 5200299
L1D-rfo_hit : 4978241
L1D-rfo_miss : 222058
L1D-prefetch_access : 6364933
L1D-prefetch_hit : 5892008
L1D-prefetch_miss : 472925
L1D-writeback_access : 0
L1D-writeback_hit : 0
L1D-writeback_miss : 0
L1D-prefetch_requested : 6684591
L1D-prefetch_issued : 6582407
L1D-prefetch_useful : 113616
L1D-prefetch_useless : 359327
L1D-Avg_miss_latency : 23.5069
L1D-Morteza_fill_l2_prefetches : 0

L1I TOTAL     ACCESS:   16462674  HIT:   13021207  MISS:    3441467
L1I LOAD      ACCESS:    9758763  HIT:    9288583  MISS:     470180
L1I RFO       ACCESS:          0  HIT:          0  MISS:          0
L1I PREFETCH  ACCESS:    6703911  HIT:    3732624  MISS:    2971287
L1I WRITEBACK ACCESS:          0  HIT:          0  MISS:          0
L1I PREFETCH  REQUESTED:    7393349  ISSUED:    7269582  USEFUL:    1810965  USELESS:    1160301
L1I AVERAGE MISS LATENCY: 16.5339 cycles
L1I

SHEET
L1I-total_access : 16462674
L1I-total_hit : 13021207
L1I-total_miss : 3441467
L1I-load_access : 9758763
L1I-load_hit : 9288583
L1I-load_miss : 470180
L1I-rfo_access : 0
L1I-rfo_hit : 0
L1I-rfo_miss : 0
L1I-prefetch_access : 6703911
L1I-prefetch_hit : 3732624
L1I-prefetch_miss : 2971287
L1I-writeback_access : 0
L1I-writeback_hit : 0
L1I-writeback_miss : 0
L1I-prefetch_requested : 7393349
L1I-prefetch_issued : 7269582
L1I-prefetch_useful : 1810965
L1I-prefetch_useless : 1160301
L1I-Avg_miss_latency : 16.5339
L1I-Morteza_fill_l2_prefetches : 0

L2C TOTAL     ACCESS:    6339047  HIT:    5815059  MISS:     523988
L2C LOAD      ACCESS:     856947  HIT:     731121  MISS:     125826
L2C RFO       ACCESS:     220327  HIT:     156053  MISS:      64274
L2C PREFETCH  ACCESS:    4833525  HIT:    4502160  MISS:     331365
L2C WRITEBACK ACCESS:     428248  HIT:     425725  MISS:       2523
L2C PREFETCH  REQUESTED:    5403585  ISSUED:    5392783  USEFUL:      25382  USELESS:     305376
L2C AVERAGE MISS LATENCY: 41.797 cycles
L2C

SHEET
L2C-total_access : 6339047
L2C-total_hit : 5815059
L2C-total_miss : 523988
L2C-load_access : 856947
L2C-load_hit : 731121
L2C-load_miss : 125826
L2C-rfo_access : 220327
L2C-rfo_hit : 156053
L2C-rfo_miss : 64274
L2C-prefetch_access : 4833525
L2C-prefetch_hit : 4502160
L2C-prefetch_miss : 331365
L2C-writeback_access : 428248
L2C-writeback_hit : 425725
L2C-writeback_miss : 2523
L2C-prefetch_requested : 5403585
L2C-prefetch_issued : 5392783
L2C-prefetch_useful : 25382
L2C-prefetch_useless : 305376
L2C-Avg_miss_latency : 41.797
L2C-Morteza_fill_l2_prefetches : 1233733

LLC TOTAL     ACCESS:    1971741  HIT:    1935985  MISS:      35756
LLC LOAD      ACCESS:     125680  HIT:     121395  MISS:       4285
LLC RFO       ACCESS:      64272  HIT:      50852  MISS:      13420
LLC PREFETCH  ACCESS:    1673139  HIT:    1655214  MISS:      17925
LLC WRITEBACK ACCESS:     108650  HIT:     108524  MISS:        126
LLC PREFETCH  REQUESTED:          0  ISSUED:          0  USEFUL:       1844  USELESS:      15884
LLC AVERAGE MISS LATENCY: 177.986 cycles
LLC

SHEET
LLC-total_access : 1971741
LLC-total_hit : 1935985
LLC-total_miss : 35756
LLC-load_access : 125680
LLC-load_hit : 121395
LLC-load_miss : 4285
LLC-rfo_access : 64272
LLC-rfo_hit : 50852
LLC-rfo_miss : 13420
LLC-prefetch_access : 1673139
LLC-prefetch_hit : 1655214
LLC-prefetch_miss : 17925
LLC-writeback_access : 108650
LLC-writeback_hit : 108524
LLC-writeback_miss : 126
LLC-prefetch_requested : 0
LLC-prefetch_issued : 0
LLC-prefetch_useful : 1844
LLC-prefetch_useless : 15884
LLC-Avg_miss_latency : 177.986
LLC-Morteza_fill_l2_prefetches : 1344489

Major fault: 0 Minor fault: 2427



Printing Logs
statHeadFound: 533804
statHeadMissing: 767989
statStreamBufferHit: 13465506
statPrefetchEntryFound: 4305890
statCompactorMatch: 13037548
statStreamTrackerLookup: 14767299
statRecord: 1729751
statGetPointer: 1301793
statEnqueuePrefetch: 13000585
statPrefetchQueueIsFull: 4797
StreamBufferHitRate: 0.911846
Regions' size: 2230
next_region_correct: 1168152
next_region_wrong: 559351
next_region_correct_prediction: 0.676208
statStreamBufferLookups: 1063245528
statL1iLookups: 104004680
statCompactorLookups: 531622764
morteza: start

SHEET
mana_table_access_counter : 3279644
mana_table_multiple_access_counter : 3297856
hobp_table_access_counter : 21649455
sab_access_counter : 17771396
srq_access_counter : 13313286

morteza: end
CPU 0 L1D next line prefetcher final stats

DRAM Statistics
 CHANNEL 0
 RQ ROW_BUFFER_HIT:      11266  ROW_BUFFER_MISS:      24360
 DBUS_CONGESTED:      23489
 WQ ROW_BUFFER_HIT:       1578  ROW_BUFFER_MISS:      14306  FULL:          0

 AVG_CONGESTED_CYCLE: 6

CPU 0 Branch Prediction Accuracy: 99.7225% MPKI: 0.50376 Average ROB Occupancy at Mispredict: 118.03

Branch types
NOT_BRANCH: 40923882 81.8478%
BRANCH_DIRECT_JUMP: 487045 0.97409%
BRANCH_INDIRECT: 169158 0.338316%
BRANCH_CONDITIONAL: 6640823 13.2816%
BRANCH_DIRECT_CALL: 755586 1.51117%
BRANCH_INDIRECT_CALL: 133962 0.267924%
BRANCH_RETURN: 889566 1.77913%
BRANCH_OTHER: 0 0%

