Initialize SIGNATURE TABLE
ST_SET: 1
ST_WAY: 256
ST_TAG_BIT: 16
ST_TAG_MASK: ffff

Initialize PATTERN TABLE
PT_SET: 512
PT_WAY: 4
SIG_DELTA_BIT: 7
C_SIG_BIT: 4
C_DELTA_BIT: 4

Initialize PREFETCH FILTER
FILTER_SET: 1024
MANA initialize 
tds: 2 tdm: 4
size MANA SINGLE: 74 KB
size MANA NULTIPLE: 43 KB
size HOBPT: 5 KB
size SRQ: 0.14502 KB
size SABs: 0.290039 KB
size prefetch queue: 0.453125 KB
total: 122.888 KB

*** ChampSim Multicore Out-of-Order Simulator ***

Warmup Instructions: 50000000
Simulation Instructions: 50000000
Number of CPUs: 1
LLC sets: 2048
LLC ways: 16
Off-chip DRAM Size: 4096 MB Channels: 1 Width: 64-bit Data Rate: 3200 MT/s

CPU 0 runs /home/mbaradaran/ChampSim/dpc3_traces/server_019.champsimtrace.xz
CPU 0 L1D next line prefetcher
Heartbeat CPU 0 instructions: 10000002 cycles: 3624023 heartbeat IPC: 2.75936 cumulative IPC: 2.75936 (Simulation time: 0 hr 1 min 33 sec) 
Heartbeat CPU 0 instructions: 20000003 cycles: 7249267 heartbeat IPC: 2.75844 cumulative IPC: 2.7589 (Simulation time: 0 hr 3 min 6 sec) 
Heartbeat CPU 0 instructions: 30000002 cycles: 10873478 heartbeat IPC: 2.75922 cumulative IPC: 2.75901 (Simulation time: 0 hr 4 min 33 sec) 
Heartbeat CPU 0 instructions: 40000002 cycles: 14509359 heartbeat IPC: 2.75037 cumulative IPC: 2.75684 (Simulation time: 0 hr 6 min 2 sec) 
Heartbeat CPU 0 instructions: 50000001 cycles: 18133826 heartbeat IPC: 2.75903 cumulative IPC: 2.75728 (Simulation time: 0 hr 7 min 35 sec) 

Warmup complete CPU 0 instructions: 50000001 cycles: 18133826 (Simulation time: 0 hr 7 min 35 sec) 

Heartbeat CPU 0 instructions: 60000000 cycles: 37842802 heartbeat IPC: 0.507383 cumulative IPC: 0.507383 (Simulation time: 0 hr 9 min 43 sec) 
Heartbeat CPU 0 instructions: 70000002 cycles: 61331083 heartbeat IPC: 0.425744 cumulative IPC: 0.462992 (Simulation time: 0 hr 11 min 43 sec) 
Heartbeat CPU 0 instructions: 80000001 cycles: 81773979 heartbeat IPC: 0.489167 cumulative IPC: 0.4714 (Simulation time: 0 hr 13 min 43 sec) 
Heartbeat CPU 0 instructions: 90000002 cycles: 99216329 heartbeat IPC: 0.573317 cumulative IPC: 0.493325 (Simulation time: 0 hr 15 min 47 sec) 
Heartbeat CPU 0 instructions: 100000002 cycles: 116617406 heartbeat IPC: 0.574677 cumulative IPC: 0.507699 (Simulation time: 0 hr 17 min 59 sec) 
Finished CPU 0 instructions: 50000001 cycles: 98483580 cumulative IPC: 0.507699 (Simulation time: 0 hr 17 min 59 sec) 

ChampSim completed all CPUs

Region of Interest Statistics

CPU 0 cumulative IPC: 0.507699 instructions: 50000001 cycles: 98483580

SHEET
IPC : 0.507699

L1D TOTAL     ACCESS:   18321579  HIT:   16097950  MISS:    2223629
L1D LOAD      ACCESS:    6985958  HIT:    6234487  MISS:     751471
L1D RFO       ACCESS:    5510940  HIT:    4608943  MISS:     901997
L1D PREFETCH  ACCESS:    5824681  HIT:    5254520  MISS:     570161
L1D WRITEBACK ACCESS:          0  HIT:          0  MISS:          0
L1D PREFETCH  REQUESTED:    7024100  ISSUED:    6838062  USEFUL:     200919  USELESS:     369151
L1D AVERAGE MISS LATENCY: 186.064 cycles
L1D

SHEET
L1D-total_access : 18321579
L1D-total_hit : 16097950
L1D-total_miss : 2223629
L1D-load_access : 6985958
L1D-load_hit : 6234487
L1D-load_miss : 751471
L1D-rfo_access : 5510940
L1D-rfo_hit : 4608943
L1D-rfo_miss : 901997
L1D-prefetch_access : 5824681
L1D-prefetch_hit : 5254520
L1D-prefetch_miss : 570161
L1D-writeback_access : 0
L1D-writeback_hit : 0
L1D-writeback_miss : 0
L1D-prefetch_requested : 7024100
L1D-prefetch_issued : 6838062
L1D-prefetch_useful : 200919
L1D-prefetch_useless : 369151
L1D-Avg_miss_latency : 186.064
L1D-Morteza_fill_l2_prefetches : 0

L1I TOTAL     ACCESS:   15100344  HIT:   12928774  MISS:    2171570
L1I LOAD      ACCESS:    9821064  HIT:    9695231  MISS:     125833
L1I RFO       ACCESS:          0  HIT:          0  MISS:          0
L1I PREFETCH  ACCESS:    5279280  HIT:    3233543  MISS:    2045737
L1I WRITEBACK ACCESS:          0  HIT:          0  MISS:          0
L1I PREFETCH  REQUESTED:    5513691  ISSUED:    5477989  USEFUL:    1948508  USELESS:      97230
L1I AVERAGE MISS LATENCY: 18.8704 cycles
L1I

SHEET
L1I-total_access : 15100344
L1I-total_hit : 12928774
L1I-total_miss : 2171570
L1I-load_access : 9821064
L1I-load_hit : 9695231
L1I-load_miss : 125833
L1I-rfo_access : 0
L1I-rfo_hit : 0
L1I-rfo_miss : 0
L1I-prefetch_access : 5279280
L1I-prefetch_hit : 3233543
L1I-prefetch_miss : 2045737
L1I-writeback_access : 0
L1I-writeback_hit : 0
L1I-writeback_miss : 0
L1I-prefetch_requested : 5513691
L1I-prefetch_issued : 5477989
L1I-prefetch_useful : 1948508
L1I-prefetch_useless : 97230
L1I-Avg_miss_latency : 18.8704
L1I-Morteza_fill_l2_prefetches : 0

L2C TOTAL     ACCESS:    6544430  HIT:    4652775  MISS:    1891655
L2C LOAD      ACCESS:     628292  HIT:     289160  MISS:     339132
L2C RFO       ACCESS:     901507  HIT:      17426  MISS:     884081
L2C PREFETCH  ACCESS:    3839987  HIT:    3174139  MISS:     665848
L2C WRITEBACK ACCESS:    1174644  HIT:    1172050  MISS:       2594
L2C PREFETCH  REQUESTED:    4129865  ISSUED:    4124373  USEFUL:      26607  USELESS:     637799
L2C AVERAGE MISS LATENCY: 221.651 cycles
L2C

SHEET
L2C-total_access : 6544430
L2C-total_hit : 4652775
L2C-total_miss : 1891655
L2C-load_access : 628292
L2C-load_hit : 289160
L2C-load_miss : 339132
L2C-rfo_access : 901507
L2C-rfo_hit : 17426
L2C-rfo_miss : 884081
L2C-prefetch_access : 3839987
L2C-prefetch_hit : 3174139
L2C-prefetch_miss : 665848
L2C-writeback_access : 1174644
L2C-writeback_hit : 1172050
L2C-writeback_miss : 2594
L2C-prefetch_requested : 4129865
L2C-prefetch_issued : 4124373
L2C-prefetch_useful : 26607
L2C-prefetch_useless : 637799
L2C-Avg_miss_latency : 221.651
L2C-Morteza_fill_l2_prefetches : 982360

LLC TOTAL     ACCESS:    4182343  HIT:    2587399  MISS:    1594944
LLC LOAD      ACCESS:     339084  HIT:     171846  MISS:     167238
LLC RFO       ACCESS:     884080  HIT:     115492  MISS:     768588
LLC PREFETCH  ACCESS:    1847091  HIT:    1189967  MISS:     657124
LLC WRITEBACK ACCESS:    1112088  HIT:    1110094  MISS:       1994
LLC PREFETCH  REQUESTED:          0  ISSUED:          0  USEFUL:      51885  USELESS:     604422
LLC AVERAGE MISS LATENCY: 276.354 cycles
LLC

SHEET
LLC-total_access : 4182343
LLC-total_hit : 2587399
LLC-total_miss : 1594944
LLC-load_access : 339084
LLC-load_hit : 171846
LLC-load_miss : 167238
LLC-rfo_access : 884080
LLC-rfo_hit : 115492
LLC-rfo_miss : 768588
LLC-prefetch_access : 1847091
LLC-prefetch_hit : 1189967
LLC-prefetch_miss : 657124
LLC-writeback_access : 1112088
LLC-writeback_hit : 1110094
LLC-writeback_miss : 1994
LLC-prefetch_requested : 0
LLC-prefetch_issued : 0
LLC-prefetch_useful : 51885
LLC-prefetch_useless : 604422
LLC-Avg_miss_latency : 276.354
LLC-Morteza_fill_l2_prefetches : 885012

Major fault: 0 Minor fault: 25743



Printing Logs
statHeadFound: 263927
statHeadMissing: 1279736
statStreamBufferHit: 11715835
statPrefetchEntryFound: 3737658
statCompactorMatch: 11017035
statStreamTrackerLookup: 13259498
statRecord: 2242463
statGetPointer: 1543663
statEnqueuePrefetch: 11615392
statPrefetchQueueIsFull: 12
StreamBufferHitRate: 0.883581
Regions' size: 1386
next_region_correct: 1901558
next_region_wrong: 339501
next_region_correct_prediction: 0.848509
statStreamBufferLookups: 954683856
statL1iLookups: 92923136
statCompactorLookups: 477341928
morteza: start

SHEET
mana_table_access_counter : 4033846
mana_table_multiple_access_counter : 2211588
hobp_table_access_counter : 25059089
sab_access_counter : 15453493
srq_access_counter : 14436724

morteza: end
CPU 0 L1D next line prefetcher final stats

DRAM Statistics
 CHANNEL 0
 RQ ROW_BUFFER_HIT:     396904  ROW_BUFFER_MISS:    1195836
 DBUS_CONGESTED:    1579278
 WQ ROW_BUFFER_HIT:     259650  ROW_BUFFER_MISS:     676610  FULL:          0

 AVG_CONGESTED_CYCLE: 6

CPU 0 Branch Prediction Accuracy: 99.2186% MPKI: 1.32192 Average ROB Occupancy at Mispredict: 177.775

Branch types
NOT_BRANCH: 41540785 83.0816%
BRANCH_DIRECT_JUMP: 462384 0.924768%
BRANCH_INDIRECT: 45460 0.09092%
BRANCH_CONDITIONAL: 6209281 12.4186%
BRANCH_DIRECT_CALL: 666241 1.33248%
BRANCH_INDIRECT_CALL: 204728 0.409456%
BRANCH_RETURN: 870978 1.74196%
BRANCH_OTHER: 0 0%

