Initialize SIGNATURE TABLE
ST_SET: 1
ST_WAY: 256
ST_TAG_BIT: 16
ST_TAG_MASK: ffff

Initialize PATTERN TABLE
PT_SET: 512
PT_WAY: 4
SIG_DELTA_BIT: 7
C_SIG_BIT: 4
C_DELTA_BIT: 4

Initialize PREFETCH FILTER
FILTER_SET: 1024
MANA initialize 
tds: 2 tdm: 4
size MANA SINGLE: 74 KB
size MANA NULTIPLE: 43 KB
size HOBPT: 5 KB
size SRQ: 0.14502 KB
size SABs: 0.290039 KB
size prefetch queue: 0.453125 KB
total: 122.888 KB

*** ChampSim Multicore Out-of-Order Simulator ***

Warmup Instructions: 50000000
Simulation Instructions: 50000000
Number of CPUs: 1
LLC sets: 2048
LLC ways: 16
Off-chip DRAM Size: 4096 MB Channels: 1 Width: 64-bit Data Rate: 3200 MT/s

CPU 0 runs /home/mbaradaran/ChampSim/dpc3_traces/client_007.champsimtrace.xz
CPU 0 L1D next line prefetcher
Heartbeat CPU 0 instructions: 10000001 cycles: 3642185 heartbeat IPC: 2.7456 cumulative IPC: 2.7456 (Simulation time: 0 hr 1 min 36 sec) 
Heartbeat CPU 0 instructions: 20000003 cycles: 7034418 heartbeat IPC: 2.94791 cumulative IPC: 2.84316 (Simulation time: 0 hr 3 min 16 sec) 
Heartbeat CPU 0 instructions: 30000000 cycles: 10906893 heartbeat IPC: 2.58233 cumulative IPC: 2.75055 (Simulation time: 0 hr 5 min 9 sec) 
Heartbeat CPU 0 instructions: 40000003 cycles: 15067000 heartbeat IPC: 2.40378 cumulative IPC: 2.65481 (Simulation time: 0 hr 7 min 5 sec) 
Heartbeat CPU 0 instructions: 50000002 cycles: 18472317 heartbeat IPC: 2.93658 cumulative IPC: 2.70675 (Simulation time: 0 hr 8 min 49 sec) 

Warmup complete CPU 0 instructions: 50000002 cycles: 18472317 (Simulation time: 0 hr 8 min 49 sec) 

Heartbeat CPU 0 instructions: 60000003 cycles: 25460180 heartbeat IPC: 1.43105 cumulative IPC: 1.43105 (Simulation time: 0 hr 10 min 37 sec) 
Heartbeat CPU 0 instructions: 70000003 cycles: 34329470 heartbeat IPC: 1.12749 cumulative IPC: 1.26126 (Simulation time: 0 hr 12 min 34 sec) 
Heartbeat CPU 0 instructions: 80000002 cycles: 39681124 heartbeat IPC: 1.86858 cumulative IPC: 1.41451 (Simulation time: 0 hr 13 min 55 sec) 
Heartbeat CPU 0 instructions: 90000002 cycles: 47403671 heartbeat IPC: 1.29491 cumulative IPC: 1.38258 (Simulation time: 0 hr 15 min 38 sec) 
Heartbeat CPU 0 instructions: 100000002 cycles: 56355981 heartbeat IPC: 1.11703 cumulative IPC: 1.31983 (Simulation time: 0 hr 17 min 21 sec) 
Finished CPU 0 instructions: 50000000 cycles: 37883664 cumulative IPC: 1.31983 (Simulation time: 0 hr 17 min 21 sec) 

ChampSim completed all CPUs

Region of Interest Statistics

CPU 0 cumulative IPC: 1.31983 instructions: 50000000 cycles: 37883664

SHEET
IPC : 1.31983

L1D TOTAL     ACCESS:   21265283  HIT:   20095809  MISS:    1169474
L1D LOAD      ACCESS:    8402447  HIT:    7863625  MISS:     538822
L1D RFO       ACCESS:    4870217  HIT:    4779172  MISS:      91045
L1D PREFETCH  ACCESS:    7992619  HIT:    7453012  MISS:     539607
L1D WRITEBACK ACCESS:          0  HIT:          0  MISS:          0
L1D PREFETCH  REQUESTED:    8454865  ISSUED:    8211550  USEFUL:     158826  USELESS:     380797
L1D AVERAGE MISS LATENCY: 34.5218 cycles
L1D

SHEET
L1D-total_access : 21265283
L1D-total_hit : 20095809
L1D-total_miss : 1169474
L1D-load_access : 8402447
L1D-load_hit : 7863625
L1D-load_miss : 538822
L1D-rfo_access : 4870217
L1D-rfo_hit : 4779172
L1D-rfo_miss : 91045
L1D-prefetch_access : 7992619
L1D-prefetch_hit : 7453012
L1D-prefetch_miss : 539607
L1D-writeback_access : 0
L1D-writeback_hit : 0
L1D-writeback_miss : 0
L1D-prefetch_requested : 8454865
L1D-prefetch_issued : 8211550
L1D-prefetch_useful : 158826
L1D-prefetch_useless : 380797
L1D-Avg_miss_latency : 34.5218
L1D-Morteza_fill_l2_prefetches : 0

L1I TOTAL     ACCESS:   14980685  HIT:   13952988  MISS:    1027697
L1I LOAD      ACCESS:    9084846  HIT:    8972474  MISS:     112372
L1I RFO       ACCESS:          0  HIT:          0  MISS:          0
L1I PREFETCH  ACCESS:    5895839  HIT:    4980514  MISS:     915325
L1I WRITEBACK ACCESS:          0  HIT:          0  MISS:          0
L1I PREFETCH  REQUESTED:    6515219  ISSUED:    6390884  USEFUL:     737653  USELESS:     177648
L1I AVERAGE MISS LATENCY: 16.4953 cycles
L1I

SHEET
L1I-total_access : 14980685
L1I-total_hit : 13952988
L1I-total_miss : 1027697
L1I-load_access : 9084846
L1I-load_hit : 8972474
L1I-load_miss : 112372
L1I-rfo_access : 0
L1I-rfo_hit : 0
L1I-rfo_miss : 0
L1I-prefetch_access : 5895839
L1I-prefetch_hit : 4980514
L1I-prefetch_miss : 915325
L1I-writeback_access : 0
L1I-writeback_hit : 0
L1I-writeback_miss : 0
L1I-prefetch_requested : 6515219
L1I-prefetch_issued : 6390884
L1I-prefetch_useful : 737653
L1I-prefetch_useless : 177648
L1I-Avg_miss_latency : 16.4953
L1I-Morteza_fill_l2_prefetches : 0

L2C TOTAL     ACCESS:    3151123  HIT:    2944495  MISS:     206628
L2C LOAD      ACCESS:     601661  HIT:     531837  MISS:      69824
L2C RFO       ACCESS:      89520  HIT:      47757  MISS:      41763
L2C PREFETCH  ACCESS:    2132226  HIT:    2037296  MISS:      94930
L2C WRITEBACK ACCESS:     327716  HIT:     327605  MISS:        111
L2C PREFETCH  REQUESTED:    2604647  ISSUED:    2599073  USEFUL:       9456  USELESS:      85053
L2C AVERAGE MISS LATENCY: 125.933 cycles
L2C

SHEET
L2C-total_access : 3151123
L2C-total_hit : 2944495
L2C-total_miss : 206628
L2C-load_access : 601661
L2C-load_hit : 531837
L2C-load_miss : 69824
L2C-rfo_access : 89520
L2C-rfo_hit : 47757
L2C-rfo_miss : 41763
L2C-prefetch_access : 2132226
L2C-prefetch_hit : 2037296
L2C-prefetch_miss : 94930
L2C-writeback_access : 327716
L2C-writeback_hit : 327605
L2C-writeback_miss : 111
L2C-prefetch_requested : 2604647
L2C-prefetch_issued : 2599073
L2C-prefetch_useful : 9456
L2C-prefetch_useless : 85053
L2C-Avg_miss_latency : 125.933
L2C-Morteza_fill_l2_prefetches : 639997

LLC TOTAL     ACCESS:    1006055  HIT:     837437  MISS:     168618
LLC LOAD      ACCESS:      69738  HIT:      34634  MISS:      35104
LLC RFO       ACCESS:      41763  HIT:       7300  MISS:      34463
LLC PREFETCH  ACCESS:     820140  HIT:     721407  MISS:      98733
LLC WRITEBACK ACCESS:      74414  HIT:      74096  MISS:        318
LLC PREFETCH  REQUESTED:          0  ISSUED:          0  USEFUL:      18773  USELESS:      80585
LLC AVERAGE MISS LATENCY: 183.032 cycles
LLC

SHEET
LLC-total_access : 1006055
LLC-total_hit : 837437
LLC-total_miss : 168618
LLC-load_access : 69738
LLC-load_hit : 34634
LLC-load_miss : 35104
LLC-rfo_access : 41763
LLC-rfo_hit : 7300
LLC-rfo_miss : 34463
LLC-prefetch_access : 820140
LLC-prefetch_hit : 721407
LLC-prefetch_miss : 98733
LLC-writeback_access : 74414
LLC-writeback_hit : 74096
LLC-writeback_miss : 318
LLC-prefetch_requested : 0
LLC-prefetch_issued : 0
LLC-prefetch_useful : 18773
LLC-prefetch_useless : 80585
LLC-Avg_miss_latency : 183.032
LLC-Morteza_fill_l2_prefetches : 670114

Major fault: 0 Minor fault: 4469



Printing Logs
statHeadFound: 618748
statHeadMissing: 1424552
statStreamBufferHit: 11630521
statPrefetchEntryFound: 4358508
statCompactorMatch: 12598643
statStreamTrackerLookup: 13673821
statRecord: 1075178
statGetPointer: 2043300
statEnqueuePrefetch: 12936543
statPrefetchQueueIsFull: 21503
StreamBufferHitRate: 0.850568
Regions' size: 4964
next_region_correct: 677129
next_region_wrong: 393067
next_region_correct_prediction: 0.632715
statStreamBufferLookups: 984515112
statL1iLookups: 103492344
statCompactorLookups: 492257556
morteza: start

SHEET
mana_table_access_counter : 1776252
mana_table_multiple_access_counter : 4305455
hobp_table_access_counter : 25040053
sab_access_counter : 15989029
srq_access_counter : 12358907

morteza: end
CPU 0 L1D next line prefetcher final stats

DRAM Statistics
 CHANNEL 0
 RQ ROW_BUFFER_HIT:      36010  ROW_BUFFER_MISS:     132285
 DBUS_CONGESTED:      94931
 WQ ROW_BUFFER_HIT:      12990  ROW_BUFFER_MISS:      45327  FULL:          0

 AVG_CONGESTED_CYCLE: 5

CPU 0 Branch Prediction Accuracy: 98.8607% MPKI: 1.8623 Average ROB Occupancy at Mispredict: 112.579

Branch types
NOT_BRANCH: 41826773 83.6535%
BRANCH_DIRECT_JUMP: 735330 1.47066%
BRANCH_INDIRECT: 269194 0.538388%
BRANCH_CONDITIONAL: 5957947 11.9159%
BRANCH_DIRECT_CALL: 368758 0.737516%
BRANCH_INDIRECT_CALL: 226975 0.45395%
BRANCH_RETURN: 614696 1.22939%
BRANCH_OTHER: 0 0%

