Initialize SIGNATURE TABLE
ST_SET: 1
ST_WAY: 256
ST_TAG_BIT: 16
ST_TAG_MASK: ffff

Initialize PATTERN TABLE
PT_SET: 512
PT_WAY: 4
SIG_DELTA_BIT: 7
C_SIG_BIT: 4
C_DELTA_BIT: 4

Initialize PREFETCH FILTER
FILTER_SET: 1024
MANA initialize 
tds: 2 tdm: 4
size MANA SINGLE: 74 KB
size MANA NULTIPLE: 43 KB
size HOBPT: 5 KB
size SRQ: 0.14502 KB
size SABs: 0.290039 KB
size prefetch queue: 0.453125 KB
total: 122.888 KB

*** ChampSim Multicore Out-of-Order Simulator ***

Warmup Instructions: 50000000
Simulation Instructions: 50000000
Number of CPUs: 1
LLC sets: 2048
LLC ways: 16
Off-chip DRAM Size: 4096 MB Channels: 1 Width: 64-bit Data Rate: 3200 MT/s

CPU 0 runs /home/mbaradaran/ChampSim/dpc3_traces/server_002.champsimtrace.xz
CPU 0 L1D next line prefetcher
Heartbeat CPU 0 instructions: 10000000 cycles: 3581206 heartbeat IPC: 2.79236 cumulative IPC: 2.79236 (Simulation time: 0 hr 1 min 43 sec) 
Heartbeat CPU 0 instructions: 20000002 cycles: 7170200 heartbeat IPC: 2.7863 cumulative IPC: 2.78932 (Simulation time: 0 hr 3 min 33 sec) 
Heartbeat CPU 0 instructions: 30000000 cycles: 10710942 heartbeat IPC: 2.82427 cumulative IPC: 2.80087 (Simulation time: 0 hr 5 min 23 sec) 
Heartbeat CPU 0 instructions: 40000000 cycles: 14261187 heartbeat IPC: 2.81671 cumulative IPC: 2.80482 (Simulation time: 0 hr 7 min 20 sec) 
Heartbeat CPU 0 instructions: 50000001 cycles: 17808958 heartbeat IPC: 2.81867 cumulative IPC: 2.80758 (Simulation time: 0 hr 9 min 9 sec) 

Warmup complete CPU 0 instructions: 50000001 cycles: 17808958 (Simulation time: 0 hr 9 min 9 sec) 

Heartbeat CPU 0 instructions: 60000000 cycles: 24249703 heartbeat IPC: 1.55262 cumulative IPC: 1.55262 (Simulation time: 0 hr 11 min 8 sec) 
Heartbeat CPU 0 instructions: 70000003 cycles: 30683525 heartbeat IPC: 1.55429 cumulative IPC: 1.55345 (Simulation time: 0 hr 13 min 5 sec) 
Heartbeat CPU 0 instructions: 80000003 cycles: 37119821 heartbeat IPC: 1.55369 cumulative IPC: 1.55353 (Simulation time: 0 hr 14 min 57 sec) 
Heartbeat CPU 0 instructions: 90000002 cycles: 43553931 heartbeat IPC: 1.55422 cumulative IPC: 1.5537 (Simulation time: 0 hr 16 min 54 sec) 
Heartbeat CPU 0 instructions: 100000003 cycles: 49987790 heartbeat IPC: 1.55428 cumulative IPC: 1.55382 (Simulation time: 0 hr 18 min 53 sec) 
Finished CPU 0 instructions: 50000002 cycles: 32178832 cumulative IPC: 1.55382 (Simulation time: 0 hr 18 min 53 sec) 

ChampSim completed all CPUs

Region of Interest Statistics

CPU 0 cumulative IPC: 1.55382 instructions: 50000002 cycles: 32178832

SHEET
IPC : 1.55382

L1D TOTAL     ACCESS:   21525750  HIT:   21524941  MISS:        809
L1D LOAD      ACCESS:    6602548  HIT:    6602173  MISS:        375
L1D RFO       ACCESS:    8433037  HIT:    8432924  MISS:        113
L1D PREFETCH  ACCESS:    6490165  HIT:    6489844  MISS:        321
L1D WRITEBACK ACCESS:          0  HIT:          0  MISS:          0
L1D PREFETCH  REQUESTED:    6602603  ISSUED:    6497534  USEFUL:         91  USELESS:        231
L1D AVERAGE MISS LATENCY: 36.4611 cycles
L1D

SHEET
L1D-total_access : 21525750
L1D-total_hit : 21524941
L1D-total_miss : 809
L1D-load_access : 6602548
L1D-load_hit : 6602173
L1D-load_miss : 375
L1D-rfo_access : 8433037
L1D-rfo_hit : 8432924
L1D-rfo_miss : 113
L1D-prefetch_access : 6490165
L1D-prefetch_hit : 6489844
L1D-prefetch_miss : 321
L1D-writeback_access : 0
L1D-writeback_hit : 0
L1D-writeback_miss : 0
L1D-prefetch_requested : 6602603
L1D-prefetch_issued : 6497534
L1D-prefetch_useful : 91
L1D-prefetch_useless : 231
L1D-Avg_miss_latency : 36.4611
L1D-Morteza_fill_l2_prefetches : 0

L1I TOTAL     ACCESS:   18930727  HIT:   17813205  MISS:    1117522
L1I LOAD      ACCESS:    9858484  HIT:    9791393  MISS:      67091
L1I RFO       ACCESS:          0  HIT:          0  MISS:          0
L1I PREFETCH  ACCESS:    9072243  HIT:    8021812  MISS:    1050431
L1I WRITEBACK ACCESS:          0  HIT:          0  MISS:          0
L1I PREFETCH  REQUESTED:    9280523  ISSUED:    9231612  USEFUL:     943061  USELESS:     107374
L1I AVERAGE MISS LATENCY: 13.9773 cycles
L1I

SHEET
L1I-total_access : 18930727
L1I-total_hit : 17813205
L1I-total_miss : 1117522
L1I-load_access : 9858484
L1I-load_hit : 9791393
L1I-load_miss : 67091
L1I-rfo_access : 0
L1I-rfo_hit : 0
L1I-rfo_miss : 0
L1I-prefetch_access : 9072243
L1I-prefetch_hit : 8021812
L1I-prefetch_miss : 1050431
L1I-writeback_access : 0
L1I-writeback_hit : 0
L1I-writeback_miss : 0
L1I-prefetch_requested : 9280523
L1I-prefetch_issued : 9231612
L1I-prefetch_useful : 943061
L1I-prefetch_useless : 107374
L1I-Avg_miss_latency : 13.9773
L1I-Morteza_fill_l2_prefetches : 0

L2C TOTAL     ACCESS:    1585792  HIT:    1585406  MISS:        386
L2C LOAD      ACCESS:      44128  HIT:      44048  MISS:         80
L2C RFO       ACCESS:        113  HIT:        111  MISS:          2
L2C PREFETCH  ACCESS:    1541215  HIT:    1540911  MISS:        304
L2C WRITEBACK ACCESS:        336  HIT:        336  MISS:          0
L2C PREFETCH  REQUESTED:    1077094  ISSUED:    1077074  USEFUL:         94  USELESS:        145
L2C AVERAGE MISS LATENCY: 151.225 cycles
L2C

SHEET
L2C-total_access : 1585792
L2C-total_hit : 1585406
L2C-total_miss : 386
L2C-load_access : 44128
L2C-load_hit : 44048
L2C-load_miss : 80
L2C-rfo_access : 113
L2C-rfo_hit : 111
L2C-rfo_miss : 2
L2C-prefetch_access : 1541215
L2C-prefetch_hit : 1540911
L2C-prefetch_miss : 304
L2C-writeback_access : 336
L2C-writeback_hit : 336
L2C-writeback_miss : 0
L2C-prefetch_requested : 1077094
L2C-prefetch_issued : 1077074
L2C-prefetch_useful : 94
L2C-prefetch_useless : 145
L2C-Avg_miss_latency : 151.225
L2C-Morteza_fill_l2_prefetches : 472550

LLC TOTAL     ACCESS:     349177  HIT:     348410  MISS:        767
LLC LOAD      ACCESS:         80  HIT:         68  MISS:         12
LLC RFO       ACCESS:          2  HIT:          0  MISS:          2
LLC PREFETCH  ACCESS:     348959  HIT:     348209  MISS:        750
LLC WRITEBACK ACCESS:        136  HIT:        133  MISS:          3
LLC PREFETCH  REQUESTED:          0  ISSUED:          0  USEFUL:         12  USELESS:        254
LLC AVERAGE MISS LATENCY: 318.481 cycles
LLC

SHEET
LLC-total_access : 349177
LLC-total_hit : 348410
LLC-total_miss : 767
LLC-load_access : 80
LLC-load_hit : 68
LLC-load_miss : 12
LLC-rfo_access : 2
LLC-rfo_hit : 0
LLC-rfo_miss : 2
LLC-prefetch_access : 348959
LLC-prefetch_hit : 348209
LLC-prefetch_miss : 750
LLC-writeback_access : 136
LLC-writeback_hit : 133
LLC-writeback_miss : 3
LLC-prefetch_requested : 0
LLC-prefetch_issued : 0
LLC-prefetch_useful : 12
LLC-prefetch_useless : 254
LLC-Avg_miss_latency : 318.481
LLC-Morteza_fill_l2_prefetches : 348100

Major fault: 0 Minor fault: 1930



Printing Logs
statHeadFound: 566992
statHeadMissing: 306849
statStreamBufferHit: 13950337
statPrefetchEntryFound: 6196827
statCompactorMatch: 11549122
statStreamTrackerLookup: 14824178
statRecord: 3275056
statGetPointer: 873841
statEnqueuePrefetch: 18279397
statPrefetchQueueIsFull: 34
StreamBufferHitRate: 0.941053
Regions' size: 2459
next_region_correct: 2303374
next_region_wrong: 969205
next_region_correct_prediction: 0.703841
statStreamBufferLookups: 1067340816
statL1iLookups: 146235176
statCompactorLookups: 533670408
morteza: start

SHEET
mana_table_access_counter : 5568507
mana_table_multiple_access_counter : 4472895
hobp_table_access_counter : 26291940
sab_access_counter : 20147164
srq_access_counter : 17166283

morteza: end
CPU 0 L1D next line prefetcher final stats

DRAM Statistics
 CHANNEL 0
 RQ ROW_BUFFER_HIT:        136  ROW_BUFFER_MISS:        628
 DBUS_CONGESTED:        477
 WQ ROW_BUFFER_HIT:         78  ROW_BUFFER_MISS:        359  FULL:          0

 AVG_CONGESTED_CYCLE: 6

CPU 0 Branch Prediction Accuracy: 99.8789% MPKI: 0.20388 Average ROB Occupancy at Mispredict: 280.451

Branch types
NOT_BRANCH: 41580695 83.1614%
BRANCH_DIRECT_JUMP: 461630 0.92326%
BRANCH_INDIRECT: 0 0%
BRANCH_CONDITIONAL: 5376437 10.7529%
BRANCH_DIRECT_CALL: 1175775 2.35155%
BRANCH_INDIRECT_CALL: 114840 0.22968%
BRANCH_RETURN: 1290625 2.58125%
BRANCH_OTHER: 0 0%

