Initialize SIGNATURE TABLE
ST_SET: 1
ST_WAY: 256
ST_TAG_BIT: 16
ST_TAG_MASK: ffff

Initialize PATTERN TABLE
PT_SET: 512
PT_WAY: 4
SIG_DELTA_BIT: 7
C_SIG_BIT: 4
C_DELTA_BIT: 4

Initialize PREFETCH FILTER
FILTER_SET: 1024
MANA initialize 
tds: 2 tdm: 4
size MANA SINGLE: 74 KB
size MANA NULTIPLE: 43 KB
size HOBPT: 5 KB
size SRQ: 0.14502 KB
size SABs: 0.290039 KB
size prefetch queue: 0.453125 KB
total: 122.888 KB

*** ChampSim Multicore Out-of-Order Simulator ***

Warmup Instructions: 50000000
Simulation Instructions: 50000000
Number of CPUs: 1
LLC sets: 2048
LLC ways: 16
Off-chip DRAM Size: 4096 MB Channels: 1 Width: 64-bit Data Rate: 3200 MT/s

CPU 0 runs /home/mbaradaran/ChampSim/dpc3_traces/server_017.champsimtrace.xz
CPU 0 L1D next line prefetcher
Heartbeat CPU 0 instructions: 10000001 cycles: 3624165 heartbeat IPC: 2.75926 cumulative IPC: 2.75926 (Simulation time: 0 hr 1 min 58 sec) 
Heartbeat CPU 0 instructions: 20000000 cycles: 7245819 heartbeat IPC: 2.76117 cumulative IPC: 2.76021 (Simulation time: 0 hr 3 min 55 sec) 
Heartbeat CPU 0 instructions: 30000002 cycles: 10874245 heartbeat IPC: 2.75602 cumulative IPC: 2.75881 (Simulation time: 0 hr 5 min 48 sec) 
Heartbeat CPU 0 instructions: 40000000 cycles: 14497992 heartbeat IPC: 2.75957 cumulative IPC: 2.759 (Simulation time: 0 hr 7 min 39 sec) 
Heartbeat CPU 0 instructions: 50000001 cycles: 18132903 heartbeat IPC: 2.7511 cumulative IPC: 2.75742 (Simulation time: 0 hr 9 min 27 sec) 

Warmup complete CPU 0 instructions: 50000001 cycles: 18132903 (Simulation time: 0 hr 9 min 27 sec) 

Heartbeat CPU 0 instructions: 60000002 cycles: 35850471 heartbeat IPC: 0.564412 cumulative IPC: 0.564412 (Simulation time: 0 hr 12 min 11 sec) 
Heartbeat CPU 0 instructions: 70000002 cycles: 53799926 heartbeat IPC: 0.55712 cumulative IPC: 0.560742 (Simulation time: 0 hr 14 min 54 sec) 
Heartbeat CPU 0 instructions: 80000000 cycles: 71500234 heartbeat IPC: 0.564962 cumulative IPC: 0.562142 (Simulation time: 0 hr 17 min 28 sec) 
Heartbeat CPU 0 instructions: 90000002 cycles: 95029922 heartbeat IPC: 0.424995 cumulative IPC: 0.520176 (Simulation time: 0 hr 20 min 10 sec) 
Heartbeat CPU 0 instructions: 100000003 cycles: 115279068 heartbeat IPC: 0.493848 cumulative IPC: 0.514688 (Simulation time: 0 hr 22 min 43 sec) 
Finished CPU 0 instructions: 50000002 cycles: 97146165 cumulative IPC: 0.514688 (Simulation time: 0 hr 22 min 43 sec) 

ChampSim completed all CPUs

Region of Interest Statistics

CPU 0 cumulative IPC: 0.514688 instructions: 50000002 cycles: 97146165

SHEET
IPC : 0.514688

L1D TOTAL     ACCESS:   18403017  HIT:   16237418  MISS:    2165599
L1D LOAD      ACCESS:    7031202  HIT:    6281074  MISS:     750128
L1D RFO       ACCESS:    5534364  HIT:    4675263  MISS:     859101
L1D PREFETCH  ACCESS:    5837451  HIT:    5281081  MISS:     556370
L1D WRITEBACK ACCESS:          0  HIT:          0  MISS:          0
L1D PREFETCH  REQUESTED:    7068423  ISSUED:    6877779  USEFUL:     193998  USELESS:     362434
L1D AVERAGE MISS LATENCY: 174.194 cycles
L1D

SHEET
L1D-total_access : 18403017
L1D-total_hit : 16237418
L1D-total_miss : 2165599
L1D-load_access : 7031202
L1D-load_hit : 6281074
L1D-load_miss : 750128
L1D-rfo_access : 5534364
L1D-rfo_hit : 4675263
L1D-rfo_miss : 859101
L1D-prefetch_access : 5837451
L1D-prefetch_hit : 5281081
L1D-prefetch_miss : 556370
L1D-writeback_access : 0
L1D-writeback_hit : 0
L1D-writeback_miss : 0
L1D-prefetch_requested : 7068423
L1D-prefetch_issued : 6877779
L1D-prefetch_useful : 193998
L1D-prefetch_useless : 362434
L1D-Avg_miss_latency : 174.194
L1D-Morteza_fill_l2_prefetches : 0

L1I TOTAL     ACCESS:   15226414  HIT:   13018824  MISS:    2207590
L1I LOAD      ACCESS:    9859509  HIT:    9749387  MISS:     110122
L1I RFO       ACCESS:          0  HIT:          0  MISS:          0
L1I PREFETCH  ACCESS:    5366905  HIT:    3269437  MISS:    2097468
L1I WRITEBACK ACCESS:          0  HIT:          0  MISS:          0
L1I PREFETCH  REQUESTED:    5561316  ISSUED:    5534274  USEFUL:    2037060  USELESS:      60412
L1I AVERAGE MISS LATENCY: 18.0719 cycles
L1I

SHEET
L1I-total_access : 15226414
L1I-total_hit : 13018824
L1I-total_miss : 2207590
L1I-load_access : 9859509
L1I-load_hit : 9749387
L1I-load_miss : 110122
L1I-rfo_access : 0
L1I-rfo_hit : 0
L1I-rfo_miss : 0
L1I-prefetch_access : 5366905
L1I-prefetch_hit : 3269437
L1I-prefetch_miss : 2097468
L1I-writeback_access : 0
L1I-writeback_hit : 0
L1I-writeback_miss : 0
L1I-prefetch_requested : 5561316
L1I-prefetch_issued : 5534274
L1I-prefetch_useful : 2037060
L1I-prefetch_useless : 60412
L1I-Avg_miss_latency : 18.0719
L1I-Morteza_fill_l2_prefetches : 0

L2C TOTAL     ACCESS:    6341507  HIT:    4494129  MISS:    1847378
L2C LOAD      ACCESS:     608083  HIT:     274488  MISS:     333595
L2C RFO       ACCESS:     858716  HIT:      18911  MISS:     839805
L2C PREFETCH  ACCESS:    3751820  HIT:    3079817  MISS:     672003
L2C WRITEBACK ACCESS:    1122888  HIT:    1120913  MISS:       1975
L2C PREFETCH  REQUESTED:    3838901  ISSUED:    3835664  USEFUL:      26662  USELESS:     645854
L2C AVERAGE MISS LATENCY: 208.466 cycles
L2C

SHEET
L2C-total_access : 6341507
L2C-total_hit : 4494129
L2C-total_miss : 1847378
L2C-load_access : 608083
L2C-load_hit : 274488
L2C-load_miss : 333595
L2C-rfo_access : 858716
L2C-rfo_hit : 18911
L2C-rfo_miss : 839805
L2C-prefetch_access : 3751820
L2C-prefetch_hit : 3079817
L2C-prefetch_miss : 672003
L2C-writeback_access : 1122888
L2C-writeback_hit : 1120913
L2C-writeback_miss : 1975
L2C-prefetch_requested : 3838901
L2C-prefetch_issued : 3835664
L2C-prefetch_useful : 26662
L2C-prefetch_useless : 645854
L2C-Avg_miss_latency : 208.466
L2C-Morteza_fill_l2_prefetches : 850919

LLC TOTAL     ACCESS:    4055590  HIT:    2512554  MISS:    1543036
LLC LOAD      ACCESS:     333472  HIT:     175855  MISS:     157617
LLC RFO       ACCESS:     839804  HIT:     121349  MISS:     718455
LLC PREFETCH  ACCESS:    1821823  HIT:    1156732  MISS:     665091
LLC WRITEBACK ACCESS:    1060491  HIT:    1058618  MISS:       1873
LLC PREFETCH  REQUESTED:          0  ISSUED:          0  USEFUL:      48485  USELESS:     615783
LLC AVERAGE MISS LATENCY: 260.993 cycles
LLC

SHEET
LLC-total_access : 4055590
LLC-total_hit : 2512554
LLC-total_miss : 1543036
LLC-load_access : 333472
LLC-load_hit : 175855
LLC-load_miss : 157617
LLC-rfo_access : 839804
LLC-rfo_hit : 121349
LLC-rfo_miss : 718455
LLC-prefetch_access : 1821823
LLC-prefetch_hit : 1156732
LLC-prefetch_miss : 665091
LLC-writeback_access : 1060491
LLC-writeback_hit : 1058618
LLC-writeback_miss : 1873
LLC-prefetch_requested : 0
LLC-prefetch_issued : 0
LLC-prefetch_useful : 48485
LLC-prefetch_useless : 615783
LLC-Avg_miss_latency : 260.993
LLC-Morteza_fill_l2_prefetches : 853223

Major fault: 0 Minor fault: 24741



Printing Logs
statHeadFound: 265638
statHeadMissing: 606624
statStreamBufferHit: 12366882
statPrefetchEntryFound: 3751136
statCompactorMatch: 11008053
statStreamTrackerLookup: 13239144
statRecord: 2231091
statGetPointer: 872262
statEnqueuePrefetch: 11628121
statPrefetchQueueIsFull: 0
StreamBufferHitRate: 0.934115
Regions' size: 1177
next_region_correct: 1892008
next_region_wrong: 337888
next_region_correct_prediction: 0.848474
statStreamBufferLookups: 953218368
statL1iLookups: 93024968
statCompactorLookups: 476609184
morteza: start

SHEET
mana_table_access_counter : 4173847
mana_table_multiple_access_counter : 2075149
hobp_table_access_counter : 19655454
sab_access_counter : 16118018
srq_access_counter : 14383120

morteza: end
CPU 0 L1D next line prefetcher final stats

DRAM Statistics
 CHANNEL 0
 RQ ROW_BUFFER_HIT:     372493  ROW_BUFFER_MISS:    1168474
 DBUS_CONGESTED:    1479367
 WQ ROW_BUFFER_HIT:     261854  ROW_BUFFER_MISS:     615233  FULL:          0

 AVG_CONGESTED_CYCLE: 6

CPU 0 Branch Prediction Accuracy: 99.2833% MPKI: 1.20568 Average ROB Occupancy at Mispredict: 180.991

Branch types
NOT_BRANCH: 41588350 83.1767%
BRANCH_DIRECT_JUMP: 464501 0.929002%
BRANCH_INDIRECT: 45704 0.091408%
BRANCH_CONDITIONAL: 6147408 12.2948%
BRANCH_DIRECT_CALL: 675450 1.3509%
BRANCH_INDIRECT_CALL: 201532 0.403064%
BRANCH_RETURN: 876985 1.75397%
BRANCH_OTHER: 0 0%

