Initialize SIGNATURE TABLE
ST_SET: 1
ST_WAY: 256
ST_TAG_BIT: 16
ST_TAG_MASK: ffff

Initialize PATTERN TABLE
PT_SET: 512
PT_WAY: 4
SIG_DELTA_BIT: 7
C_SIG_BIT: 4
C_DELTA_BIT: 4

Initialize PREFETCH FILTER
FILTER_SET: 1024
MANA initialize 
tds: 2 tdm: 4
size MANA SINGLE: 74 KB
size MANA NULTIPLE: 43 KB
size HOBPT: 5 KB
size SRQ: 0.14502 KB
size SABs: 0.290039 KB
size prefetch queue: 0.453125 KB
total: 122.888 KB

*** ChampSim Multicore Out-of-Order Simulator ***

Warmup Instructions: 50000000
Simulation Instructions: 50000000
Number of CPUs: 1
LLC sets: 2048
LLC ways: 16
Off-chip DRAM Size: 4096 MB Channels: 1 Width: 64-bit Data Rate: 3200 MT/s

CPU 0 runs /home/mbaradaran/ChampSim/dpc3_traces/server_037.champsimtrace.xz
CPU 0 L1D next line prefetcher
Heartbeat CPU 0 instructions: 10000001 cycles: 3321108 heartbeat IPC: 3.01104 cumulative IPC: 3.01104 (Simulation time: 0 hr 2 min 0 sec) 
Heartbeat CPU 0 instructions: 20000002 cycles: 6639436 heartbeat IPC: 3.01357 cumulative IPC: 3.0123 (Simulation time: 0 hr 3 min 46 sec) 
Heartbeat CPU 0 instructions: 30000003 cycles: 10005576 heartbeat IPC: 2.97076 cumulative IPC: 2.99833 (Simulation time: 0 hr 5 min 7 sec) 
Heartbeat CPU 0 instructions: 40000000 cycles: 13325755 heartbeat IPC: 3.01188 cumulative IPC: 3.00171 (Simulation time: 0 hr 6 min 23 sec) 
Heartbeat CPU 0 instructions: 50000003 cycles: 16645262 heartbeat IPC: 3.0125 cumulative IPC: 3.00386 (Simulation time: 0 hr 7 min 40 sec) 

Warmup complete CPU 0 instructions: 50000003 cycles: 16645262 (Simulation time: 0 hr 7 min 40 sec) 

Heartbeat CPU 0 instructions: 60000001 cycles: 23040993 heartbeat IPC: 1.56354 cumulative IPC: 1.56354 (Simulation time: 0 hr 9 min 1 sec) 
Heartbeat CPU 0 instructions: 70000000 cycles: 29532752 heartbeat IPC: 1.54041 cumulative IPC: 1.55189 (Simulation time: 0 hr 10 min 24 sec) 
Heartbeat CPU 0 instructions: 80000000 cycles: 35922945 heartbeat IPC: 1.5649 cumulative IPC: 1.5562 (Simulation time: 0 hr 11 min 46 sec) 
Heartbeat CPU 0 instructions: 90000002 cycles: 42324104 heartbeat IPC: 1.56222 cumulative IPC: 1.5577 (Simulation time: 0 hr 13 min 7 sec) 
*** Reached end of trace for Core: 0 Repeating trace: /home/mbaradaran/ChampSim/dpc3_traces/server_037.champsimtrace.xz
Heartbeat CPU 0 instructions: 100000000 cycles: 48734128 heartbeat IPC: 1.56006 cumulative IPC: 1.55817 (Simulation time: 0 hr 14 min 27 sec) 
Finished CPU 0 instructions: 50000001 cycles: 32088867 cumulative IPC: 1.55817 (Simulation time: 0 hr 14 min 27 sec) 

ChampSim completed all CPUs

Region of Interest Statistics

CPU 0 cumulative IPC: 1.55817 instructions: 50000001 cycles: 32088867

SHEET
IPC : 1.55817

L1D TOTAL     ACCESS:   18697933  HIT:   17719951  MISS:     977982
L1D LOAD      ACCESS:    6364599  HIT:    5873554  MISS:     491045
L1D RFO       ACCESS:    6205161  HIT:    6141077  MISS:      64084
L1D PREFETCH  ACCESS:    6128173  HIT:    5705320  MISS:     422853
L1D WRITEBACK ACCESS:          0  HIT:          0  MISS:          0
L1D PREFETCH  REQUESTED:    6401145  ISSUED:    6248470  USEFUL:     117733  USELESS:     305124
L1D AVERAGE MISS LATENCY: 28.9153 cycles
L1D

SHEET
L1D-total_access : 18697933
L1D-total_hit : 17719951
L1D-total_miss : 977982
L1D-load_access : 6364599
L1D-load_hit : 5873554
L1D-load_miss : 491045
L1D-rfo_access : 6205161
L1D-rfo_hit : 6141077
L1D-rfo_miss : 64084
L1D-prefetch_access : 6128173
L1D-prefetch_hit : 5705320
L1D-prefetch_miss : 422853
L1D-writeback_access : 0
L1D-writeback_hit : 0
L1D-writeback_miss : 0
L1D-prefetch_requested : 6401145
L1D-prefetch_issued : 6248470
L1D-prefetch_useful : 117733
L1D-prefetch_useless : 305124
L1D-Avg_miss_latency : 28.9153
L1D-Morteza_fill_l2_prefetches : 0

L1I TOTAL     ACCESS:   16733894  HIT:   12404817  MISS:    4329077
L1I LOAD      ACCESS:    9356467  HIT:    9142965  MISS:     213502
L1I RFO       ACCESS:          0  HIT:          0  MISS:          0
L1I PREFETCH  ACCESS:    7377427  HIT:    3261852  MISS:    4115575
L1I WRITEBACK ACCESS:          0  HIT:          0  MISS:          0
L1I PREFETCH  REQUESTED:    7687379  ISSUED:    7603063  USEFUL:    3844065  USELESS:     271555
L1I AVERAGE MISS LATENCY: 14.8613 cycles
L1I

SHEET
L1I-total_access : 16733894
L1I-total_hit : 12404817
L1I-total_miss : 4329077
L1I-load_access : 9356467
L1I-load_hit : 9142965
L1I-load_miss : 213502
L1I-rfo_access : 0
L1I-rfo_hit : 0
L1I-rfo_miss : 0
L1I-prefetch_access : 7377427
L1I-prefetch_hit : 3261852
L1I-prefetch_miss : 4115575
L1I-writeback_access : 0
L1I-writeback_hit : 0
L1I-writeback_miss : 0
L1I-prefetch_requested : 7687379
L1I-prefetch_issued : 7603063
L1I-prefetch_useful : 3844065
L1I-prefetch_useless : 271555
L1I-Avg_miss_latency : 14.8613
L1I-Morteza_fill_l2_prefetches : 0

L2C TOTAL     ACCESS:    7747164  HIT:    7443479  MISS:     303685
L2C LOAD      ACCESS:     611334  HIT:     474192  MISS:     137142
L2C RFO       ACCESS:      63799  HIT:      37429  MISS:      26370
L2C PREFETCH  ACCESS:    6782483  HIT:    6643190  MISS:     139293
L2C WRITEBACK ACCESS:     289548  HIT:     288668  MISS:        880
L2C PREFETCH  REQUESTED:    7255469  ISSUED:    7229193  USEFUL:       7059  USELESS:     132067
L2C AVERAGE MISS LATENCY: 46.2482 cycles
L2C

SHEET
L2C-total_access : 7747164
L2C-total_hit : 7443479
L2C-total_miss : 303685
L2C-load_access : 611334
L2C-load_hit : 474192
L2C-load_miss : 137142
L2C-rfo_access : 63799
L2C-rfo_hit : 37429
L2C-rfo_miss : 26370
L2C-prefetch_access : 6782483
L2C-prefetch_hit : 6643190
L2C-prefetch_miss : 139293
L2C-writeback_access : 289548
L2C-writeback_hit : 288668
L2C-writeback_miss : 880
L2C-prefetch_requested : 7255469
L2C-prefetch_issued : 7229193
L2C-prefetch_useful : 7059
L2C-prefetch_useless : 132067
L2C-Avg_miss_latency : 46.2482
L2C-Morteza_fill_l2_prefetches : 2178792

LLC TOTAL     ACCESS:    1879973  HIT:    1819738  MISS:      60235
LLC LOAD      ACCESS:     137124  HIT:     124201  MISS:      12923
LLC RFO       ACCESS:      26368  HIT:      22058  MISS:       4310
LLC PREFETCH  ACCESS:    1581060  HIT:    1538690  MISS:      42370
LLC WRITEBACK ACCESS:     135421  HIT:     134789  MISS:        632
LLC PREFETCH  REQUESTED:          0  ISSUED:          0  USEFUL:       4913  USELESS:      37173
LLC AVERAGE MISS LATENCY: 169.254 cycles
LLC

SHEET
LLC-total_access : 1879973
LLC-total_hit : 1819738
LLC-total_miss : 60235
LLC-load_access : 137124
LLC-load_hit : 124201
LLC-load_miss : 12923
LLC-rfo_access : 26368
LLC-rfo_hit : 22058
LLC-rfo_miss : 4310
LLC-prefetch_access : 1581060
LLC-prefetch_hit : 1538690
LLC-prefetch_miss : 42370
LLC-writeback_access : 135421
LLC-writeback_hit : 134789
LLC-writeback_miss : 632
LLC-prefetch_requested : 0
LLC-prefetch_issued : 0
LLC-prefetch_useful : 4913
LLC-prefetch_useless : 37173
LLC-Avg_miss_latency : 169.254
LLC-Morteza_fill_l2_prefetches : 1418425

Major fault: 0 Minor fault: 5699



Printing Logs
statHeadFound: 295788
statHeadMissing: 556631
statStreamBufferHit: 13709377
statPrefetchEntryFound: 4827936
statCompactorMatch: 11322134
statStreamTrackerLookup: 14561796
statRecord: 3239662
statGetPointer: 852419
statEnqueuePrefetch: 15193145
statPrefetchQueueIsFull: 0
StreamBufferHitRate: 0.941462
Regions' size: 1119
next_region_correct: 2598931
next_region_wrong: 639594
next_region_correct_prediction: 0.802505
statStreamBufferLookups: 1048449312
statL1iLookups: 121545160
statCompactorLookups: 524224656
morteza: start

SHEET
mana_table_access_counter : 5801606
mana_table_multiple_access_counter : 2562947
hobp_table_access_counter : 24607854
sab_access_counter : 18537313
srq_access_counter : 16727835

morteza: end
CPU 0 L1D next line prefetcher final stats

DRAM Statistics
 CHANNEL 0
 RQ ROW_BUFFER_HIT:      10204  ROW_BUFFER_MISS:      49399
 DBUS_CONGESTED:      29403
 WQ ROW_BUFFER_HIT:       1255  ROW_BUFFER_MISS:      11018  FULL:          0

 AVG_CONGESTED_CYCLE: 5

CPU 0 Branch Prediction Accuracy: 99.913% MPKI: 0.15656 Average ROB Occupancy at Mispredict: 212.339

Branch types
NOT_BRANCH: 41001720 82.0034%
BRANCH_DIRECT_JUMP: 541941 1.08388%
BRANCH_INDIRECT: 59716 0.119432%
BRANCH_CONDITIONAL: 5916853 11.8337%
BRANCH_DIRECT_CALL: 1005465 2.01093%
BRANCH_INDIRECT_CALL: 234433 0.468866%
BRANCH_RETURN: 1239877 2.47975%
BRANCH_OTHER: 0 0%

