Initialize SIGNATURE TABLE
ST_SET: 1
ST_WAY: 256
ST_TAG_BIT: 16
ST_TAG_MASK: ffff

Initialize PATTERN TABLE
PT_SET: 512
PT_WAY: 4
SIG_DELTA_BIT: 7
C_SIG_BIT: 4
C_DELTA_BIT: 4

Initialize PREFETCH FILTER
FILTER_SET: 1024
MANA initialize 
tds: 2 tdm: 4
size MANA SINGLE: 74 KB
size MANA NULTIPLE: 43 KB
size HOBPT: 5 KB
size SRQ: 0.14502 KB
size SABs: 0.290039 KB
size prefetch queue: 0.453125 KB
total: 122.888 KB

*** ChampSim Multicore Out-of-Order Simulator ***

Warmup Instructions: 50000000
Simulation Instructions: 50000000
Number of CPUs: 1
LLC sets: 2048
LLC ways: 16
Off-chip DRAM Size: 4096 MB Channels: 1 Width: 64-bit Data Rate: 3200 MT/s

CPU 0 runs /home/mbaradaran/ChampSim/dpc3_traces/server_038.champsimtrace.xz
CPU 0 L1D next line prefetcher
Heartbeat CPU 0 instructions: 10000001 cycles: 3322178 heartbeat IPC: 3.01007 cumulative IPC: 3.01007 (Simulation time: 0 hr 1 min 51 sec) 
Heartbeat CPU 0 instructions: 20000003 cycles: 6647523 heartbeat IPC: 3.00721 cumulative IPC: 3.00864 (Simulation time: 0 hr 3 min 38 sec) 
Heartbeat CPU 0 instructions: 30000003 cycles: 9968714 heartbeat IPC: 3.01097 cumulative IPC: 3.00942 (Simulation time: 0 hr 4 min 59 sec) 
Heartbeat CPU 0 instructions: 40000001 cycles: 13294145 heartbeat IPC: 3.00713 cumulative IPC: 3.00884 (Simulation time: 0 hr 6 min 14 sec) 
Heartbeat CPU 0 instructions: 50000001 cycles: 16617693 heartbeat IPC: 3.00883 cumulative IPC: 3.00884 (Simulation time: 0 hr 7 min 27 sec) 

Warmup complete CPU 0 instructions: 50000001 cycles: 16617693 (Simulation time: 0 hr 7 min 27 sec) 

Heartbeat CPU 0 instructions: 60000002 cycles: 23057448 heartbeat IPC: 1.55285 cumulative IPC: 1.55285 (Simulation time: 0 hr 8 min 47 sec) 
Heartbeat CPU 0 instructions: 70000001 cycles: 29458979 heartbeat IPC: 1.56213 cumulative IPC: 1.55748 (Simulation time: 0 hr 10 min 5 sec) 
Heartbeat CPU 0 instructions: 80000000 cycles: 35878709 heartbeat IPC: 1.5577 cumulative IPC: 1.55755 (Simulation time: 0 hr 11 min 23 sec) 
Heartbeat CPU 0 instructions: 90000001 cycles: 42292384 heartbeat IPC: 1.55917 cumulative IPC: 1.55795 (Simulation time: 0 hr 12 min 40 sec) 
*** Reached end of trace for Core: 0 Repeating trace: /home/mbaradaran/ChampSim/dpc3_traces/server_038.champsimtrace.xz
Heartbeat CPU 0 instructions: 100000002 cycles: 48733490 heartbeat IPC: 1.55253 cumulative IPC: 1.55687 (Simulation time: 0 hr 13 min 56 sec) 
Finished CPU 0 instructions: 50000001 cycles: 32115797 cumulative IPC: 1.55687 (Simulation time: 0 hr 13 min 56 sec) 

ChampSim completed all CPUs

Region of Interest Statistics

CPU 0 cumulative IPC: 1.55687 instructions: 50000001 cycles: 32115797

SHEET
IPC : 1.55687

L1D TOTAL     ACCESS:   18701407  HIT:   17719003  MISS:     982404
L1D LOAD      ACCESS:    6363649  HIT:    5870330  MISS:     493319
L1D RFO       ACCESS:    6210515  HIT:    6146117  MISS:      64398
L1D PREFETCH  ACCESS:    6127243  HIT:    5702556  MISS:     424687
L1D WRITEBACK ACCESS:          0  HIT:          0  MISS:          0
L1D PREFETCH  REQUESTED:    6399975  ISSUED:    6247269  USEFUL:     117903  USELESS:     306787
L1D AVERAGE MISS LATENCY: 29.3472 cycles
L1D

SHEET
L1D-total_access : 18701407
L1D-total_hit : 17719003
L1D-total_miss : 982404
L1D-load_access : 6363649
L1D-load_hit : 5870330
L1D-load_miss : 493319
L1D-rfo_access : 6210515
L1D-rfo_hit : 6146117
L1D-rfo_miss : 64398
L1D-prefetch_access : 6127243
L1D-prefetch_hit : 5702556
L1D-prefetch_miss : 424687
L1D-writeback_access : 0
L1D-writeback_hit : 0
L1D-writeback_miss : 0
L1D-prefetch_requested : 6399975
L1D-prefetch_issued : 6247269
L1D-prefetch_useful : 117903
L1D-prefetch_useless : 306787
L1D-Avg_miss_latency : 29.3472
L1D-Morteza_fill_l2_prefetches : 0

L1I TOTAL     ACCESS:   16774775  HIT:   12474599  MISS:    4300176
L1I LOAD      ACCESS:    9355679  HIT:    9157785  MISS:     197894
L1I RFO       ACCESS:          0  HIT:          0  MISS:          0
L1I PREFETCH  ACCESS:    7419096  HIT:    3316814  MISS:    4102282
L1I WRITEBACK ACCESS:          0  HIT:          0  MISS:          0
L1I PREFETCH  REQUESTED:    7653251  ISSUED:    7600169  USEFUL:    3864929  USELESS:     237393
L1I AVERAGE MISS LATENCY: 14.8689 cycles
L1I

SHEET
L1I-total_access : 16774775
L1I-total_hit : 12474599
L1I-total_miss : 4300176
L1I-load_access : 9355679
L1I-load_hit : 9157785
L1I-load_miss : 197894
L1I-rfo_access : 0
L1I-rfo_hit : 0
L1I-rfo_miss : 0
L1I-prefetch_access : 7419096
L1I-prefetch_hit : 3316814
L1I-prefetch_miss : 4102282
L1I-writeback_access : 0
L1I-writeback_hit : 0
L1I-writeback_miss : 0
L1I-prefetch_requested : 7653251
L1I-prefetch_issued : 7600169
L1I-prefetch_useful : 3864929
L1I-prefetch_useless : 237393
L1I-Avg_miss_latency : 14.8689
L1I-Morteza_fill_l2_prefetches : 0

L2C TOTAL     ACCESS:    7698471  HIT:    7388155  MISS:     310316
L2C LOAD      ACCESS:     604040  HIT:     465057  MISS:     138983
L2C RFO       ACCESS:      64143  HIT:      34977  MISS:      29166
L2C PREFETCH  ACCESS:    6738469  HIT:    6597344  MISS:     141125
L2C WRITEBACK ACCESS:     291819  HIT:     290777  MISS:       1042
L2C PREFETCH  REQUESTED:    7425062  ISSUED:    7398913  USEFUL:       5994  USELESS:     135031
L2C AVERAGE MISS LATENCY: 46.8044 cycles
L2C

SHEET
L2C-total_access : 7698471
L2C-total_hit : 7388155
L2C-total_miss : 310316
L2C-load_access : 604040
L2C-load_hit : 465057
L2C-load_miss : 138983
L2C-rfo_access : 64143
L2C-rfo_hit : 34977
L2C-rfo_miss : 29166
L2C-prefetch_access : 6738469
L2C-prefetch_hit : 6597344
L2C-prefetch_miss : 141125
L2C-writeback_access : 291819
L2C-writeback_hit : 290777
L2C-writeback_miss : 1042
L2C-prefetch_requested : 7425062
L2C-prefetch_issued : 7398913
L2C-prefetch_useful : 5994
L2C-prefetch_useless : 135031
L2C-Avg_miss_latency : 46.8044
L2C-Morteza_fill_l2_prefetches : 2152125

LLC TOTAL     ACCESS:    1947409  HIT:    1888080  MISS:      59329
LLC LOAD      ACCESS:     138959  HIT:     125786  MISS:      13173
LLC RFO       ACCESS:      29164  HIT:      24217  MISS:       4947
LLC PREFETCH  ACCESS:    1636149  HIT:    1595532  MISS:      40617
LLC WRITEBACK ACCESS:     143137  HIT:     142545  MISS:        592
LLC PREFETCH  REQUESTED:          0  ISSUED:          0  USEFUL:       4227  USELESS:      35850
LLC AVERAGE MISS LATENCY: 169.974 cycles
LLC

SHEET
LLC-total_access : 1947409
LLC-total_hit : 1888080
LLC-total_miss : 59329
LLC-load_access : 138959
LLC-load_hit : 125786
LLC-load_miss : 13173
LLC-rfo_access : 29164
LLC-rfo_hit : 24217
LLC-rfo_miss : 4947
LLC-prefetch_access : 1636149
LLC-prefetch_hit : 1595532
LLC-prefetch_miss : 40617
LLC-writeback_access : 143137
LLC-writeback_hit : 142545
LLC-writeback_miss : 592
LLC-prefetch_requested : 0
LLC-prefetch_issued : 0
LLC-prefetch_useful : 4227
LLC-prefetch_useless : 35850
LLC-Avg_miss_latency : 169.974
LLC-Morteza_fill_l2_prefetches : 1473327

Major fault: 0 Minor fault: 5574



Printing Logs
statHeadFound: 300163
statHeadMissing: 525814
statStreamBufferHit: 13766629
statPrefetchEntryFound: 4855774
statCompactorMatch: 11344073
statStreamTrackerLookup: 14592606
statRecord: 3248533
statGetPointer: 825977
statEnqueuePrefetch: 15246950
statPrefetchQueueIsFull: 0
StreamBufferHitRate: 0.943398
Regions' size: 868
next_region_correct: 2606945
next_region_wrong: 640702
next_region_correct_prediction: 0.802718
statStreamBufferLookups: 1050667632
statL1iLookups: 121975600
statCompactorLookups: 525333816
morteza: start

SHEET
mana_table_access_counter : 5969798
mana_table_multiple_access_counter : 2435686
hobp_table_access_counter : 24459385
sab_access_counter : 18622403
srq_access_counter : 16769721

morteza: end
CPU 0 L1D next line prefetcher final stats

DRAM Statistics
 CHANNEL 0
 RQ ROW_BUFFER_HIT:       9007  ROW_BUFFER_MISS:      49728
 DBUS_CONGESTED:      28195
 WQ ROW_BUFFER_HIT:       1082  ROW_BUFFER_MISS:      12721  FULL:          0

 AVG_CONGESTED_CYCLE: 5

CPU 0 Branch Prediction Accuracy: 99.9279% MPKI: 0.12968 Average ROB Occupancy at Mispredict: 245.994

Branch types
NOT_BRANCH: 41006327 82.0127%
BRANCH_DIRECT_JUMP: 541914 1.08383%
BRANCH_INDIRECT: 59690 0.11938%
BRANCH_CONDITIONAL: 5915848 11.8317%
BRANCH_DIRECT_CALL: 1003589 2.00718%
BRANCH_INDIRECT_CALL: 234499 0.468998%
BRANCH_RETURN: 1238071 2.47614%
BRANCH_OTHER: 0 0%

