Initialize SIGNATURE TABLE
ST_SET: 1
ST_WAY: 256
ST_TAG_BIT: 16
ST_TAG_MASK: ffff

Initialize PATTERN TABLE
PT_SET: 512
PT_WAY: 4
SIG_DELTA_BIT: 7
C_SIG_BIT: 4
C_DELTA_BIT: 4

Initialize PREFETCH FILTER
FILTER_SET: 1024
MANA initialize 
tds: 2 tdm: 4
size MANA SINGLE: 74 KB
size MANA NULTIPLE: 43 KB
size HOBPT: 5 KB
size SRQ: 0.14502 KB
size SABs: 0.290039 KB
size prefetch queue: 0.453125 KB
total: 122.888 KB

*** ChampSim Multicore Out-of-Order Simulator ***

Warmup Instructions: 50000000
Simulation Instructions: 50000000
Number of CPUs: 1
LLC sets: 2048
LLC ways: 16
Off-chip DRAM Size: 4096 MB Channels: 1 Width: 64-bit Data Rate: 3200 MT/s

CPU 0 runs /home/mbaradaran/ChampSim/dpc3_traces/server_034.champsimtrace.xz
CPU 0 L1D next line prefetcher
Heartbeat CPU 0 instructions: 10000000 cycles: 3332515 heartbeat IPC: 3.00074 cumulative IPC: 3.00074 (Simulation time: 0 hr 1 min 52 sec) 
Heartbeat CPU 0 instructions: 20000002 cycles: 6657471 heartbeat IPC: 3.00756 cumulative IPC: 3.00414 (Simulation time: 0 hr 3 min 46 sec) 
Heartbeat CPU 0 instructions: 30000003 cycles: 9990754 heartbeat IPC: 3.00005 cumulative IPC: 3.00278 (Simulation time: 0 hr 5 min 36 sec) 
Heartbeat CPU 0 instructions: 40000001 cycles: 13322344 heartbeat IPC: 3.00157 cumulative IPC: 3.00247 (Simulation time: 0 hr 7 min 24 sec) 
Heartbeat CPU 0 instructions: 50000000 cycles: 16652713 heartbeat IPC: 3.00267 cumulative IPC: 3.00251 (Simulation time: 0 hr 9 min 17 sec) 

Warmup complete CPU 0 instructions: 50000002 cycles: 16652714 (Simulation time: 0 hr 9 min 17 sec) 

Heartbeat CPU 0 instructions: 60000002 cycles: 22644558 heartbeat IPC: 1.66894 cumulative IPC: 1.66894 (Simulation time: 0 hr 11 min 4 sec) 
Heartbeat CPU 0 instructions: 70000003 cycles: 29008952 heartbeat IPC: 1.57124 cumulative IPC: 1.61862 (Simulation time: 0 hr 13 min 0 sec) 
Heartbeat CPU 0 instructions: 80000002 cycles: 35076418 heartbeat IPC: 1.64813 cumulative IPC: 1.62834 (Simulation time: 0 hr 14 min 58 sec) 
Heartbeat CPU 0 instructions: 90000002 cycles: 41143926 heartbeat IPC: 1.64812 cumulative IPC: 1.63324 (Simulation time: 0 hr 16 min 45 sec) 
Heartbeat CPU 0 instructions: 100000002 cycles: 47180979 heartbeat IPC: 1.65644 cumulative IPC: 1.63783 (Simulation time: 0 hr 18 min 33 sec) 
Finished CPU 0 instructions: 50000000 cycles: 30528265 cumulative IPC: 1.63783 (Simulation time: 0 hr 18 min 33 sec) 

ChampSim completed all CPUs

Region of Interest Statistics

CPU 0 cumulative IPC: 1.63783 instructions: 50000000 cycles: 30528265

SHEET
IPC : 1.63783

L1D TOTAL     ACCESS:   18310696  HIT:   16886495  MISS:    1424201
L1D LOAD      ACCESS:    6164459  HIT:    5508729  MISS:     655730
L1D RFO       ACCESS:    6162387  HIT:    6019369  MISS:     143018
L1D PREFETCH  ACCESS:    5983850  HIT:    5358397  MISS:     625453
L1D WRITEBACK ACCESS:          0  HIT:          0  MISS:          0
L1D PREFETCH  REQUESTED:    6198831  ISSUED:    6110952  USEFUL:     140927  USELESS:     484493
L1D AVERAGE MISS LATENCY: 17.6172 cycles
L1D

SHEET
L1D-total_access : 18310696
L1D-total_hit : 16886495
L1D-total_miss : 1424201
L1D-load_access : 6164459
L1D-load_hit : 5508729
L1D-load_miss : 655730
L1D-rfo_access : 6162387
L1D-rfo_hit : 6019369
L1D-rfo_miss : 143018
L1D-prefetch_access : 5983850
L1D-prefetch_hit : 5358397
L1D-prefetch_miss : 625453
L1D-writeback_access : 0
L1D-writeback_hit : 0
L1D-writeback_miss : 0
L1D-prefetch_requested : 6198831
L1D-prefetch_issued : 6110952
L1D-prefetch_useful : 140927
L1D-prefetch_useless : 484493
L1D-Avg_miss_latency : 17.6172
L1D-Morteza_fill_l2_prefetches : 0

L1I TOTAL     ACCESS:   17744827  HIT:   13720806  MISS:    4024021
L1I LOAD      ACCESS:    9574540  HIT:    9222825  MISS:     351715
L1I RFO       ACCESS:          0  HIT:          0  MISS:          0
L1I PREFETCH  ACCESS:    8170287  HIT:    4497981  MISS:    3672306
L1I WRITEBACK ACCESS:          0  HIT:          0  MISS:          0
L1I PREFETCH  REQUESTED:    8671251  ISSUED:    8632294  USEFUL:    3018341  USELESS:     653925
L1I AVERAGE MISS LATENCY: 14.895 cycles
L1I

SHEET
L1I-total_access : 17744827
L1I-total_hit : 13720806
L1I-total_miss : 4024021
L1I-load_access : 9574540
L1I-load_hit : 9222825
L1I-load_miss : 351715
L1I-rfo_access : 0
L1I-rfo_hit : 0
L1I-rfo_miss : 0
L1I-prefetch_access : 8170287
L1I-prefetch_hit : 4497981
L1I-prefetch_miss : 3672306
L1I-writeback_access : 0
L1I-writeback_hit : 0
L1I-writeback_miss : 0
L1I-prefetch_requested : 8671251
L1I-prefetch_issued : 8632294
L1I-prefetch_useful : 3018341
L1I-prefetch_useless : 653925
L1I-Avg_miss_latency : 14.895
L1I-Morteza_fill_l2_prefetches : 0

L2C TOTAL     ACCESS:    7359109  HIT:    7235735  MISS:     123374
L2C LOAD      ACCESS:     897056  HIT:     856174  MISS:      40882
L2C RFO       ACCESS:     141240  HIT:     132812  MISS:       8428
L2C PREFETCH  ACCESS:    5970069  HIT:    5896755  MISS:      73314
L2C WRITEBACK ACCESS:     350744  HIT:     349994  MISS:        750
L2C PREFETCH  REQUESTED:    6554835  ISSUED:    6542910  USEFUL:       3456  USELESS:      68830
L2C AVERAGE MISS LATENCY: 39.9337 cycles
L2C

SHEET
L2C-total_access : 7359109
L2C-total_hit : 7235735
L2C-total_miss : 123374
L2C-load_access : 897056
L2C-load_hit : 856174
L2C-load_miss : 40882
L2C-rfo_access : 141240
L2C-rfo_hit : 132812
L2C-rfo_miss : 8428
L2C-prefetch_access : 5970069
L2C-prefetch_hit : 5896755
L2C-prefetch_miss : 73314
L2C-writeback_access : 350744
L2C-writeback_hit : 349994
L2C-writeback_miss : 750
L2C-prefetch_requested : 6554835
L2C-prefetch_issued : 6542910
L2C-prefetch_useful : 3456
L2C-prefetch_useless : 68830
L2C-Avg_miss_latency : 39.9337
L2C-Morteza_fill_l2_prefetches : 1582718

LLC TOTAL     ACCESS:    1766554  HIT:    1753590  MISS:      12964
LLC LOAD      ACCESS:      40785  HIT:      38155  MISS:       2630
LLC RFO       ACCESS:       8427  HIT:       8184  MISS:        243
LLC PREFETCH  ACCESS:    1677748  HIT:    1667714  MISS:      10034
LLC WRITEBACK ACCESS:      39594  HIT:      39537  MISS:         57
LLC PREFETCH  REQUESTED:          0  ISSUED:          0  USEFUL:       2903  USELESS:       4764
LLC AVERAGE MISS LATENCY: 152.923 cycles
LLC

SHEET
LLC-total_access : 1766554
LLC-total_hit : 1753590
LLC-total_miss : 12964
LLC-load_access : 40785
LLC-load_hit : 38155
LLC-load_miss : 2630
LLC-rfo_access : 8427
LLC-rfo_hit : 8184
LLC-rfo_miss : 243
LLC-prefetch_access : 1677748
LLC-prefetch_hit : 1667714
LLC-prefetch_miss : 10034
LLC-writeback_access : 39594
LLC-writeback_hit : 39537
LLC-writeback_miss : 57
LLC-prefetch_requested : 0
LLC-prefetch_issued : 0
LLC-prefetch_useful : 2903
LLC-prefetch_useless : 4764
LLC-Avg_miss_latency : 152.923
LLC-Morteza_fill_l2_prefetches : 1600956

Major fault: 0 Minor fault: 1229



Printing Logs
statHeadFound: 497089
statHeadMissing: 485434
statStreamBufferHit: 14192854
statPrefetchEntryFound: 5644175
statCompactorMatch: 12116885
statStreamTrackerLookup: 15175377
statRecord: 3058492
statGetPointer: 982523
statEnqueuePrefetch: 17351329
statPrefetchQueueIsFull: 9817
StreamBufferHitRate: 0.935255
Regions' size: 1332
next_region_correct: 2372261
next_region_wrong: 684881
next_region_correct_prediction: 0.775973
statStreamBufferLookups: 1092627144
statL1iLookups: 138810632
statCompactorLookups: 546313572
morteza: start

SHEET
mana_table_access_counter : 6104069
mana_table_multiple_access_counter : 3107049
hobp_table_access_counter : 25750692
sab_access_counter : 19837029
srq_access_counter : 16726017

morteza: end
CPU 0 L1D next line prefetcher final stats

DRAM Statistics
 CHANNEL 0
 RQ ROW_BUFFER_HIT:       3758  ROW_BUFFER_MISS:       9141
 DBUS_CONGESTED:       5680
 WQ ROW_BUFFER_HIT:        928  ROW_BUFFER_MISS:       2610  FULL:          0

 AVG_CONGESTED_CYCLE: 5

CPU 0 Branch Prediction Accuracy: 99.926% MPKI: 0.14472 Average ROB Occupancy at Mispredict: 223.592

Branch types
NOT_BRANCH: 40220981 80.442%
BRANCH_DIRECT_JUMP: 771319 1.54264%
BRANCH_INDIRECT: 108663 0.217326%
BRANCH_CONDITIONAL: 6375035 12.7501%
BRANCH_DIRECT_CALL: 1049635 2.09927%
BRANCH_INDIRECT_CALL: 212281 0.424562%
BRANCH_RETURN: 1261925 2.52385%
BRANCH_OTHER: 0 0%

