Initialize SIGNATURE TABLE
ST_SET: 1
ST_WAY: 256
ST_TAG_BIT: 16
ST_TAG_MASK: ffff

Initialize PATTERN TABLE
PT_SET: 512
PT_WAY: 4
SIG_DELTA_BIT: 7
C_SIG_BIT: 4
C_DELTA_BIT: 4

Initialize PREFETCH FILTER
FILTER_SET: 1024

*** ChampSim Multicore Out-of-Order Simulator ***

Warmup Instructions: 50000000
Simulation Instructions: 50000000
Number of CPUs: 1
LLC sets: 2048
LLC ways: 16
Off-chip DRAM Size: 4096 MB Channels: 1 Width: 64-bit Data Rate: 3200 MT/s

CPU 0 runs /home/mbaradaran/ChampSim/dpc3_traces/client_008.champsimtrace.xz
CPU 0 L1D next line prefetcher
Heartbeat CPU 0 instructions: 10000001 cycles: 3752084 heartbeat IPC: 2.66519 cumulative IPC: 2.66519 (Simulation time: 0 hr 1 min 21 sec) 
Heartbeat CPU 0 instructions: 20000001 cycles: 7525825 heartbeat IPC: 2.64989 cumulative IPC: 2.65752 (Simulation time: 0 hr 2 min 42 sec) 
Heartbeat CPU 0 instructions: 30000000 cycles: 11251283 heartbeat IPC: 2.68423 cumulative IPC: 2.66636 (Simulation time: 0 hr 4 min 3 sec) 
Heartbeat CPU 0 instructions: 40000002 cycles: 15043730 heartbeat IPC: 2.63682 cumulative IPC: 2.65892 (Simulation time: 0 hr 5 min 26 sec) 
Heartbeat CPU 0 instructions: 50000003 cycles: 18833902 heartbeat IPC: 2.6384 cumulative IPC: 2.65479 (Simulation time: 0 hr 6 min 52 sec) 

Warmup complete CPU 0 instructions: 50000003 cycles: 18833902 (Simulation time: 0 hr 6 min 52 sec) 

Heartbeat CPU 0 instructions: 60000000 cycles: 27301942 heartbeat IPC: 1.18091 cumulative IPC: 1.18091 (Simulation time: 0 hr 8 min 17 sec) 
Heartbeat CPU 0 instructions: 70000000 cycles: 35384109 heartbeat IPC: 1.23729 cumulative IPC: 1.20844 (Simulation time: 0 hr 9 min 49 sec) 
Heartbeat CPU 0 instructions: 80000001 cycles: 44793546 heartbeat IPC: 1.06276 cumulative IPC: 1.15564 (Simulation time: 0 hr 11 min 14 sec) 
Heartbeat CPU 0 instructions: 90000001 cycles: 52290705 heartbeat IPC: 1.33384 cumulative IPC: 1.19557 (Simulation time: 0 hr 12 min 27 sec) 
Heartbeat CPU 0 instructions: 100000001 cycles: 60389733 heartbeat IPC: 1.23472 cumulative IPC: 1.2032 (Simulation time: 0 hr 13 min 44 sec) 
Finished CPU 0 instructions: 50000002 cycles: 41555832 cumulative IPC: 1.2032 (Simulation time: 0 hr 13 min 44 sec) 

ChampSim completed all CPUs

Region of Interest Statistics

CPU 0 cumulative IPC: 1.2032 instructions: 50000002 cycles: 41555832

SHEET
IPC : 1.2032

L1D TOTAL     ACCESS:   20591636  HIT:   18963021  MISS:    1628615
L1D LOAD      ACCESS:    8112682  HIT:    7314602  MISS:     798080
L1D RFO       ACCESS:    4823295  HIT:    4713821  MISS:     109474
L1D PREFETCH  ACCESS:    7655659  HIT:    6934598  MISS:     721061
L1D WRITEBACK ACCESS:          0  HIT:          0  MISS:          0
L1D PREFETCH  REQUESTED:    8182473  ISSUED:    8013286  USEFUL:     201049  USELESS:     520017
L1D AVERAGE MISS LATENCY: 32.7865 cycles
L1D

SHEET
L1D-total_access : 20591636
L1D-total_hit : 18963021
L1D-total_miss : 1628615
L1D-load_access : 8112682
L1D-load_hit : 7314602
L1D-load_miss : 798080
L1D-rfo_access : 4823295
L1D-rfo_hit : 4713821
L1D-rfo_miss : 109474
L1D-prefetch_access : 7655659
L1D-prefetch_hit : 6934598
L1D-prefetch_miss : 721061
L1D-writeback_access : 0
L1D-writeback_hit : 0
L1D-writeback_miss : 0
L1D-prefetch_requested : 8182473
L1D-prefetch_issued : 8013286
L1D-prefetch_useful : 201049
L1D-prefetch_useless : 520017
L1D-Avg_miss_latency : 32.7865
L1D-Morteza_fill_l2_prefetches : 0

L1I TOTAL     ACCESS:   16419712  HIT:   14962373  MISS:    1457339
L1I LOAD      ACCESS:    9776126  HIT:    9554374  MISS:     221752
L1I RFO       ACCESS:          0  HIT:          0  MISS:          0
L1I PREFETCH  ACCESS:    6643586  HIT:    5407999  MISS:    1235587
L1I WRITEBACK ACCESS:          0  HIT:          0  MISS:          0
L1I PREFETCH  REQUESTED:    6733598  ISSUED:    6731909  USEFUL:     804746  USELESS:     430796
L1I AVERAGE MISS LATENCY: 16.2756 cycles
L1I

SHEET
L1I-total_access : 16419712
L1I-total_hit : 14962373
L1I-total_miss : 1457339
L1I-load_access : 9776126
L1I-load_hit : 9554374
L1I-load_miss : 221752
L1I-rfo_access : 0
L1I-rfo_hit : 0
L1I-rfo_miss : 0
L1I-prefetch_access : 6643586
L1I-prefetch_hit : 5407999
L1I-prefetch_miss : 1235587
L1I-writeback_access : 0
L1I-writeback_hit : 0
L1I-writeback_miss : 0
L1I-prefetch_requested : 6733598
L1I-prefetch_issued : 6731909
L1I-prefetch_useful : 804746
L1I-prefetch_useless : 430796
L1I-Avg_miss_latency : 16.2756
L1I-Morteza_fill_l2_prefetches : 0

L2C TOTAL     ACCESS:    4361257  HIT:    3901253  MISS:     460004
L2C LOAD      ACCESS:     950330  HIT:     773172  MISS:     177158
L2C RFO       ACCESS:     104279  HIT:      18214  MISS:      86065
L2C PREFETCH  ACCESS:    3124681  HIT:    2928363  MISS:     196318
L2C WRITEBACK ACCESS:     181967  HIT:     181504  MISS:        463
L2C PREFETCH  REQUESTED:    3187908  ISSUED:    3183042  USEFUL:      19653  USELESS:     177531
L2C AVERAGE MISS LATENCY: 74.5925 cycles
L2C

SHEET
L2C-total_access : 4361257
L2C-total_hit : 3901253
L2C-total_miss : 460004
L2C-load_access : 950330
L2C-load_hit : 773172
L2C-load_miss : 177158
L2C-rfo_access : 104279
L2C-rfo_hit : 18214
L2C-rfo_miss : 86065
L2C-prefetch_access : 3124681
L2C-prefetch_hit : 2928363
L2C-prefetch_miss : 196318
L2C-writeback_access : 181967
L2C-writeback_hit : 181504
L2C-writeback_miss : 463
L2C-prefetch_requested : 3187908
L2C-prefetch_issued : 3183042
L2C-prefetch_useful : 19653
L2C-prefetch_useless : 177531
L2C-Avg_miss_latency : 74.5925
L2C-Morteza_fill_l2_prefetches : 1106665

LLC TOTAL     ACCESS:    1401434  HIT:    1217548  MISS:     183886
LLC LOAD      ACCESS:     177041  HIT:     151839  MISS:      25202
LLC RFO       ACCESS:      86063  HIT:      15886  MISS:      70177
LLC PREFETCH  ACCESS:    1002106  HIT:     913958  MISS:      88148
LLC WRITEBACK ACCESS:     136224  HIT:     135865  MISS:        359
LLC PREFETCH  REQUESTED:          0  ISSUED:          0  USEFUL:      26361  USELESS:      67870
LLC AVERAGE MISS LATENCY: 163.699 cycles
LLC

SHEET
LLC-total_access : 1401434
LLC-total_hit : 1217548
LLC-total_miss : 183886
LLC-load_access : 177041
LLC-load_hit : 151839
LLC-load_miss : 25202
LLC-rfo_access : 86063
LLC-rfo_hit : 15886
LLC-rfo_miss : 70177
LLC-prefetch_access : 1002106
LLC-prefetch_hit : 913958
LLC-prefetch_miss : 88148
LLC-writeback_access : 136224
LLC-writeback_hit : 135865
LLC-writeback_miss : 359
LLC-prefetch_requested : 0
LLC-prefetch_issued : 0
LLC-prefetch_useful : 26361
LLC-prefetch_useless : 67870
LLC-Avg_miss_latency : 163.699
LLC-Morteza_fill_l2_prefetches : 759047

Major fault: 0 Minor fault: 5303



Printing Logs
morteza: start

SHEET
history_access_cntr : 6115480
index_access_cntr : 2167334
sab_access_cntr : 17269121
compactor_access_cntr : 15761466

morteza: end
CPU 0 L1D next line prefetcher final stats

DRAM Statistics
 CHANNEL 0
 RQ ROW_BUFFER_HIT:      51085  ROW_BUFFER_MISS:     132428
 DBUS_CONGESTED:      95669
 WQ ROW_BUFFER_HIT:      24288  ROW_BUFFER_MISS:      66599  FULL:          0

 AVG_CONGESTED_CYCLE: 6

CPU 0 Branch Prediction Accuracy: 98.6482% MPKI: 3.1551 Average ROB Occupancy at Mispredict: 89.7489

Branch types
NOT_BRANCH: 38329598 76.6592%
BRANCH_DIRECT_JUMP: 510116 1.02023%
BRANCH_INDIRECT: 225730 0.45146%
BRANCH_CONDITIONAL: 8366762 16.7335%
BRANCH_DIRECT_CALL: 600748 1.2015%
BRANCH_INDIRECT_CALL: 682990 1.36598%
BRANCH_RETURN: 1283974 2.56795%
BRANCH_OTHER: 0 0%

