Initialize SIGNATURE TABLE
ST_SET: 1
ST_WAY: 256
ST_TAG_BIT: 16
ST_TAG_MASK: ffff

Initialize PATTERN TABLE
PT_SET: 512
PT_WAY: 4
SIG_DELTA_BIT: 7
C_SIG_BIT: 4
C_DELTA_BIT: 4

Initialize PREFETCH FILTER
FILTER_SET: 1024

*** ChampSim Multicore Out-of-Order Simulator ***

Warmup Instructions: 50000000
Simulation Instructions: 50000000
Number of CPUs: 1
LLC sets: 2048
LLC ways: 16
Off-chip DRAM Size: 4096 MB Channels: 1 Width: 64-bit Data Rate: 3200 MT/s

CPU 0 runs /home/mbaradaran/ChampSim/dpc3_traces/client_003.champsimtrace.xz
CPU 0 L1D next line prefetcher
Heartbeat CPU 0 instructions: 10000000 cycles: 3478506 heartbeat IPC: 2.8748 cumulative IPC: 2.8748 (Simulation time: 0 hr 1 min 22 sec) 
Heartbeat CPU 0 instructions: 20000002 cycles: 6933527 heartbeat IPC: 2.89434 cumulative IPC: 2.88454 (Simulation time: 0 hr 2 min 45 sec) 
Heartbeat CPU 0 instructions: 30000003 cycles: 10494986 heartbeat IPC: 2.80784 cumulative IPC: 2.85851 (Simulation time: 0 hr 4 min 15 sec) 
Heartbeat CPU 0 instructions: 40000001 cycles: 14112257 heartbeat IPC: 2.76451 cumulative IPC: 2.83442 (Simulation time: 0 hr 5 min 37 sec) 
Heartbeat CPU 0 instructions: 50000003 cycles: 17658267 heartbeat IPC: 2.82007 cumulative IPC: 2.83154 (Simulation time: 0 hr 7 min 5 sec) 

Warmup complete CPU 0 instructions: 50000003 cycles: 17658267 (Simulation time: 0 hr 7 min 5 sec) 

Heartbeat CPU 0 instructions: 60000002 cycles: 24466259 heartbeat IPC: 1.46886 cumulative IPC: 1.46886 (Simulation time: 0 hr 8 min 15 sec) 
Heartbeat CPU 0 instructions: 70000001 cycles: 30921662 heartbeat IPC: 1.54909 cumulative IPC: 1.50791 (Simulation time: 0 hr 9 min 29 sec) 
Heartbeat CPU 0 instructions: 80000001 cycles: 38284426 heartbeat IPC: 1.35819 cumulative IPC: 1.45446 (Simulation time: 0 hr 10 min 37 sec) 
Heartbeat CPU 0 instructions: 90000000 cycles: 47247355 heartbeat IPC: 1.11571 cumulative IPC: 1.35185 (Simulation time: 0 hr 11 min 40 sec) 
Heartbeat CPU 0 instructions: 100000003 cycles: 58199687 heartbeat IPC: 0.913048 cumulative IPC: 1.23331 (Simulation time: 0 hr 12 min 49 sec) 
Finished CPU 0 instructions: 50000000 cycles: 40541420 cumulative IPC: 1.23331 (Simulation time: 0 hr 12 min 49 sec) 

ChampSim completed all CPUs

Region of Interest Statistics

CPU 0 cumulative IPC: 1.23331 instructions: 50000000 cycles: 40541420

SHEET
IPC : 1.23331

L1D TOTAL     ACCESS:   17896883  HIT:   17400813  MISS:     496070
L1D LOAD      ACCESS:    6158178  HIT:    6034268  MISS:     123910
L1D RFO       ACCESS:    5958950  HIT:    5724879  MISS:     234071
L1D PREFETCH  ACCESS:    5779755  HIT:    5641666  MISS:     138089
L1D WRITEBACK ACCESS:          0  HIT:          0  MISS:          0
L1D PREFETCH  REQUESTED:    6199493  ISSUED:    6055600  USEFUL:      69998  USELESS:      68138
L1D AVERAGE MISS LATENCY: 124.245 cycles
L1D

SHEET
L1D-total_access : 17896883
L1D-total_hit : 17400813
L1D-total_miss : 496070
L1D-load_access : 6158178
L1D-load_hit : 6034268
L1D-load_miss : 123910
L1D-rfo_access : 5958950
L1D-rfo_hit : 5724879
L1D-rfo_miss : 234071
L1D-prefetch_access : 5779755
L1D-prefetch_hit : 5641666
L1D-prefetch_miss : 138089
L1D-writeback_access : 0
L1D-writeback_hit : 0
L1D-writeback_miss : 0
L1D-prefetch_requested : 6199493
L1D-prefetch_issued : 6055600
L1D-prefetch_useful : 69998
L1D-prefetch_useless : 68138
L1D-Avg_miss_latency : 124.245
L1D-Morteza_fill_l2_prefetches : 0

L1I TOTAL     ACCESS:   17900728  HIT:   15851759  MISS:    2048969
L1I LOAD      ACCESS:    9483364  HIT:    9170098  MISS:     313266
L1I RFO       ACCESS:          0  HIT:          0  MISS:          0
L1I PREFETCH  ACCESS:    8417364  HIT:    6681661  MISS:    1735703
L1I WRITEBACK ACCESS:          0  HIT:          0  MISS:          0
L1I PREFETCH  REQUESTED:    8605483  ISSUED:    8601471  USEFUL:     832665  USELESS:     903152
L1I AVERAGE MISS LATENCY: 15.7664 cycles
L1I

SHEET
L1I-total_access : 17900728
L1I-total_hit : 15851759
L1I-total_miss : 2048969
L1I-load_access : 9483364
L1I-load_hit : 9170098
L1I-load_miss : 313266
L1I-rfo_access : 0
L1I-rfo_hit : 0
L1I-rfo_miss : 0
L1I-prefetch_access : 8417364
L1I-prefetch_hit : 6681661
L1I-prefetch_miss : 1735703
L1I-writeback_access : 0
L1I-writeback_hit : 0
L1I-writeback_miss : 0
L1I-prefetch_requested : 8605483
L1I-prefetch_issued : 8601471
L1I-prefetch_useful : 832665
L1I-prefetch_useless : 903152
L1I-Avg_miss_latency : 15.7664
L1I-Morteza_fill_l2_prefetches : 0

L2C TOTAL     ACCESS:    3690332  HIT:    3298680  MISS:     391652
L2C LOAD      ACCESS:     352841  HIT:     289235  MISS:      63606
L2C RFO       ACCESS:     232024  HIT:      25862  MISS:     206162
L2C PREFETCH  ACCESS:    2836178  HIT:    2715555  MISS:     120623
L2C WRITEBACK ACCESS:     269289  HIT:     268028  MISS:       1261
L2C PREFETCH  REQUESTED:    2309390  ISSUED:    2309034  USEFUL:      10437  USELESS:     109206
L2C AVERAGE MISS LATENCY: 166.356 cycles
L2C

SHEET
L2C-total_access : 3690332
L2C-total_hit : 3298680
L2C-total_miss : 391652
L2C-load_access : 352841
L2C-load_hit : 289235
L2C-load_miss : 63606
L2C-rfo_access : 232024
L2C-rfo_hit : 25862
L2C-rfo_miss : 206162
L2C-prefetch_access : 2836178
L2C-prefetch_hit : 2715555
L2C-prefetch_miss : 120623
L2C-writeback_access : 269289
L2C-writeback_hit : 268028
L2C-writeback_miss : 1261
L2C-prefetch_requested : 2309390
L2C-prefetch_issued : 2309034
L2C-prefetch_useful : 10437
L2C-prefetch_useless : 109206
L2C-Avg_miss_latency : 166.356
L2C-Morteza_fill_l2_prefetches : 869151

LLC TOTAL     ACCESS:    1142335  HIT:     853559  MISS:     288776
LLC LOAD      ACCESS:      63505  HIT:      45152  MISS:      18353
LLC RFO       ACCESS:     206152  HIT:      33805  MISS:     172347
LLC PREFETCH  ACCESS:     648648  HIT:     550946  MISS:      97702
LLC WRITEBACK ACCESS:     224030  HIT:     223656  MISS:        374
LLC PREFETCH  REQUESTED:          0  ISSUED:          0  USEFUL:      14087  USELESS:      82911
LLC AVERAGE MISS LATENCY: 230.545 cycles
LLC

SHEET
LLC-total_access : 1142335
LLC-total_hit : 853559
LLC-total_miss : 288776
LLC-load_access : 63505
LLC-load_hit : 45152
LLC-load_miss : 18353
LLC-rfo_access : 206152
LLC-rfo_hit : 33805
LLC-rfo_miss : 172347
LLC-prefetch_access : 648648
LLC-prefetch_hit : 550946
LLC-prefetch_miss : 97702
LLC-writeback_access : 224030
LLC-writeback_hit : 223656
LLC-writeback_miss : 374
LLC-prefetch_requested : 0
LLC-prefetch_issued : 0
LLC-prefetch_useful : 14087
LLC-prefetch_useless : 82911
LLC-Avg_miss_latency : 230.545
LLC-Morteza_fill_l2_prefetches : 490101

Major fault: 0 Minor fault: 5042



Printing Logs
morteza: start

SHEET
history_access_cntr : 9664485
index_access_cntr : 3302152
sab_access_cntr : 18722554
compactor_access_cntr : 16416738

morteza: end
CPU 0 L1D next line prefetcher final stats

DRAM Statistics
 CHANNEL 0
 RQ ROW_BUFFER_HIT:      98124  ROW_BUFFER_MISS:     190271
 DBUS_CONGESTED:     257689
 WQ ROW_BUFFER_HIT:      58288  ROW_BUFFER_MISS:     120449  FULL:          0

 AVG_CONGESTED_CYCLE: 6

CPU 0 Branch Prediction Accuracy: 98.6631% MPKI: 2.66884 Average ROB Occupancy at Mispredict: 63.4326

Branch types
NOT_BRANCH: 40018718 80.0374%
BRANCH_DIRECT_JUMP: 370861 0.741722%
BRANCH_INDIRECT: 83252 0.166504%
BRANCH_CONDITIONAL: 7877427 15.7549%
BRANCH_DIRECT_CALL: 722311 1.44462%
BRANCH_INDIRECT_CALL: 101901 0.203802%
BRANCH_RETURN: 825355 1.65071%
BRANCH_OTHER: 0 0%

