Initialize SIGNATURE TABLE
ST_SET: 1
ST_WAY: 256
ST_TAG_BIT: 16
ST_TAG_MASK: ffff

Initialize PATTERN TABLE
PT_SET: 512
PT_WAY: 4
SIG_DELTA_BIT: 7
C_SIG_BIT: 4
C_DELTA_BIT: 4

Initialize PREFETCH FILTER
FILTER_SET: 1024

*** ChampSim Multicore Out-of-Order Simulator ***

Warmup Instructions: 50000000
Simulation Instructions: 50000000
Number of CPUs: 1
LLC sets: 2048
LLC ways: 16
Off-chip DRAM Size: 4096 MB Channels: 1 Width: 64-bit Data Rate: 3200 MT/s

CPU 0 runs /home/mbaradaran/ChampSim/dpc3_traces/server_027.champsimtrace.xz
CPU 0 L1D next line prefetcher
Heartbeat CPU 0 instructions: 10000001 cycles: 3524699 heartbeat IPC: 2.83712 cumulative IPC: 2.83712 (Simulation time: 0 hr 1 min 21 sec) 
Heartbeat CPU 0 instructions: 20000001 cycles: 7053979 heartbeat IPC: 2.83344 cumulative IPC: 2.83528 (Simulation time: 0 hr 2 min 43 sec) 
Heartbeat CPU 0 instructions: 30000002 cycles: 10578173 heartbeat IPC: 2.83753 cumulative IPC: 2.83603 (Simulation time: 0 hr 4 min 10 sec) 
Heartbeat CPU 0 instructions: 40000000 cycles: 14108040 heartbeat IPC: 2.83297 cumulative IPC: 2.83526 (Simulation time: 0 hr 5 min 32 sec) 
Heartbeat CPU 0 instructions: 50000001 cycles: 17631692 heartbeat IPC: 2.83797 cumulative IPC: 2.8358 (Simulation time: 0 hr 6 min 52 sec) 

Warmup complete CPU 0 instructions: 50000001 cycles: 17631692 (Simulation time: 0 hr 6 min 52 sec) 

Heartbeat CPU 0 instructions: 60000002 cycles: 24532056 heartbeat IPC: 1.4492 cumulative IPC: 1.4492 (Simulation time: 0 hr 8 min 16 sec) 
Heartbeat CPU 0 instructions: 70000003 cycles: 31359133 heartbeat IPC: 1.46476 cumulative IPC: 1.45694 (Simulation time: 0 hr 9 min 44 sec) 
Heartbeat CPU 0 instructions: 80000002 cycles: 38213212 heartbeat IPC: 1.45899 cumulative IPC: 1.45762 (Simulation time: 0 hr 11 min 8 sec) 
Heartbeat CPU 0 instructions: 90000001 cycles: 45144537 heartbeat IPC: 1.44273 cumulative IPC: 1.45387 (Simulation time: 0 hr 12 min 33 sec) 
Heartbeat CPU 0 instructions: 100000002 cycles: 51955962 heartbeat IPC: 1.46812 cumulative IPC: 1.4567 (Simulation time: 0 hr 13 min 55 sec) 
Finished CPU 0 instructions: 50000001 cycles: 34324270 cumulative IPC: 1.4567 (Simulation time: 0 hr 13 min 55 sec) 

ChampSim completed all CPUs

Region of Interest Statistics

CPU 0 cumulative IPC: 1.4567 instructions: 50000001 cycles: 34324270

SHEET
IPC : 1.4567

L1D TOTAL     ACCESS:   20019306  HIT:   18417555  MISS:    1601751
L1D LOAD      ACCESS:    7006494  HIT:    6316224  MISS:     690270
L1D RFO       ACCESS:    6289785  HIT:    6003740  MISS:     286045
L1D PREFETCH  ACCESS:    6723027  HIT:    6097591  MISS:     625436
L1D WRITEBACK ACCESS:          0  HIT:          0  MISS:          0
L1D PREFETCH  REQUESTED:    7051340  ISSUED:    6927241  USEFUL:     150945  USELESS:     474504
L1D AVERAGE MISS LATENCY: 23.0533 cycles
L1D

SHEET
L1D-total_access : 20019306
L1D-total_hit : 18417555
L1D-total_miss : 1601751
L1D-load_access : 7006494
L1D-load_hit : 6316224
L1D-load_miss : 690270
L1D-rfo_access : 6289785
L1D-rfo_hit : 6003740
L1D-rfo_miss : 286045
L1D-prefetch_access : 6723027
L1D-prefetch_hit : 6097591
L1D-prefetch_miss : 625436
L1D-writeback_access : 0
L1D-writeback_hit : 0
L1D-writeback_miss : 0
L1D-prefetch_requested : 7051340
L1D-prefetch_issued : 6927241
L1D-prefetch_useful : 150945
L1D-prefetch_useless : 474504
L1D-Avg_miss_latency : 23.0533
L1D-Morteza_fill_l2_prefetches : 0

L1I TOTAL     ACCESS:   15496541  HIT:   11792169  MISS:    3704372
L1I LOAD      ACCESS:    9397376  HIT:    9094058  MISS:     303318
L1I RFO       ACCESS:          0  HIT:          0  MISS:          0
L1I PREFETCH  ACCESS:    6099165  HIT:    2698111  MISS:    3401054
L1I WRITEBACK ACCESS:          0  HIT:          0  MISS:          0
L1I PREFETCH  REQUESTED:    6288807  ISSUED:    6281880  USEFUL:    2799569  USELESS:     601491
L1I AVERAGE MISS LATENCY: 17.4561 cycles
L1I

SHEET
L1I-total_access : 15496541
L1I-total_hit : 11792169
L1I-total_miss : 3704372
L1I-load_access : 9397376
L1I-load_hit : 9094058
L1I-load_miss : 303318
L1I-rfo_access : 0
L1I-rfo_hit : 0
L1I-rfo_miss : 0
L1I-prefetch_access : 6099165
L1I-prefetch_hit : 2698111
L1I-prefetch_miss : 3401054
L1I-writeback_access : 0
L1I-writeback_hit : 0
L1I-writeback_miss : 0
L1I-prefetch_requested : 6288807
L1I-prefetch_issued : 6281880
L1I-prefetch_useful : 2799569
L1I-prefetch_useless : 601491
L1I-Avg_miss_latency : 17.4561
L1I-Morteza_fill_l2_prefetches : 0

L2C TOTAL     ACCESS:    7173778  HIT:    6437107  MISS:     736671
L2C LOAD      ACCESS:     851671  HIT:     731675  MISS:     119996
L2C RFO       ACCESS:     283758  HIT:     199015  MISS:      84743
L2C PREFETCH  ACCESS:    5479046  HIT:    4950662  MISS:     528384
L2C WRITEBACK ACCESS:     559303  HIT:     555755  MISS:       3548
L2C PREFETCH  REQUESTED:    5865011  ISSUED:    5860372  USEFUL:      40697  USELESS:     487200
L2C AVERAGE MISS LATENCY: 39.2499 cycles
L2C

SHEET
L2C-total_access : 7173778
L2C-total_hit : 6437107
L2C-total_miss : 736671
L2C-load_access : 851671
L2C-load_hit : 731675
L2C-load_miss : 119996
L2C-rfo_access : 283758
L2C-rfo_hit : 199015
L2C-rfo_miss : 84743
L2C-prefetch_access : 5479046
L2C-prefetch_hit : 4950662
L2C-prefetch_miss : 528384
L2C-writeback_access : 559303
L2C-writeback_hit : 555755
L2C-writeback_miss : 3548
L2C-prefetch_requested : 5865011
L2C-prefetch_issued : 5860372
L2C-prefetch_useful : 40697
L2C-prefetch_useless : 487200
L2C-Avg_miss_latency : 39.2499
L2C-Morteza_fill_l2_prefetches : 1335861

LLC TOTAL     ACCESS:    2391527  HIT:    2358455  MISS:      33072
LLC LOAD      ACCESS:     119815  HIT:     116205  MISS:       3610
LLC RFO       ACCESS:      84742  HIT:      70967  MISS:      13775
LLC PREFETCH  ACCESS:    2050342  HIT:    2034857  MISS:      15485
LLC WRITEBACK ACCESS:     136628  HIT:     136426  MISS:        202
LLC PREFETCH  REQUESTED:          0  ISSUED:          0  USEFUL:       1579  USELESS:      13610
LLC AVERAGE MISS LATENCY: 182.164 cycles
LLC

SHEET
LLC-total_access : 2391527
LLC-total_hit : 2358455
LLC-total_miss : 33072
LLC-load_access : 119815
LLC-load_hit : 116205
LLC-load_miss : 3610
LLC-rfo_access : 84742
LLC-rfo_hit : 70967
LLC-rfo_miss : 13775
LLC-prefetch_access : 2050342
LLC-prefetch_hit : 2034857
LLC-prefetch_miss : 15485
LLC-writeback_access : 136628
LLC-writeback_hit : 136426
LLC-writeback_miss : 202
LLC-prefetch_requested : 0
LLC-prefetch_issued : 0
LLC-prefetch_useful : 1579
LLC-prefetch_useless : 13610
LLC-Avg_miss_latency : 182.164
LLC-Morteza_fill_l2_prefetches : 1527566

Major fault: 0 Minor fault: 2477



Printing Logs
morteza: start

SHEET
history_access_cntr : 6903657
index_access_cntr : 2903221
sab_access_cntr : 17625750
compactor_access_cntr : 16891200

morteza: end
CPU 0 L1D next line prefetcher final stats

DRAM Statistics
 CHANNEL 0
 RQ ROW_BUFFER_HIT:      11299  ROW_BUFFER_MISS:      21571
 DBUS_CONGESTED:      23122
 WQ ROW_BUFFER_HIT:       1552  ROW_BUFFER_MISS:      14368  FULL:          0

 AVG_CONGESTED_CYCLE: 6

CPU 0 Branch Prediction Accuracy: 99.8082% MPKI: 0.35064 Average ROB Occupancy at Mispredict: 177.79

Branch types
NOT_BRANCH: 40857507 81.715%
BRANCH_DIRECT_JUMP: 526635 1.05327%
BRANCH_INDIRECT: 205902 0.411804%
BRANCH_CONDITIONAL: 6184050 12.3681%
BRANCH_DIRECT_CALL: 938468 1.87694%
BRANCH_INDIRECT_CALL: 174486 0.348972%
BRANCH_RETURN: 1112959 2.22592%
BRANCH_OTHER: 0 0%

