Initialize SIGNATURE TABLE
ST_SET: 1
ST_WAY: 256
ST_TAG_BIT: 16
ST_TAG_MASK: ffff

Initialize PATTERN TABLE
PT_SET: 512
PT_WAY: 4
SIG_DELTA_BIT: 7
C_SIG_BIT: 4
C_DELTA_BIT: 4

Initialize PREFETCH FILTER
FILTER_SET: 1024

*** ChampSim Multicore Out-of-Order Simulator ***

Warmup Instructions: 50000000
Simulation Instructions: 50000000
Number of CPUs: 1
LLC sets: 2048
LLC ways: 16
Off-chip DRAM Size: 4096 MB Channels: 1 Width: 64-bit Data Rate: 3200 MT/s

CPU 0 runs /home/mbaradaran/ChampSim/dpc3_traces/server_032.champsimtrace.xz
CPU 0 L1D next line prefetcher
Heartbeat CPU 0 instructions: 10000002 cycles: 3522157 heartbeat IPC: 2.83917 cumulative IPC: 2.83917 (Simulation time: 0 hr 1 min 31 sec) 
Heartbeat CPU 0 instructions: 20000003 cycles: 7045448 heartbeat IPC: 2.83826 cumulative IPC: 2.83871 (Simulation time: 0 hr 2 min 53 sec) 
Heartbeat CPU 0 instructions: 30000000 cycles: 10568855 heartbeat IPC: 2.83816 cumulative IPC: 2.83853 (Simulation time: 0 hr 4 min 21 sec) 
Heartbeat CPU 0 instructions: 40000003 cycles: 14093318 heartbeat IPC: 2.83731 cumulative IPC: 2.83822 (Simulation time: 0 hr 5 min 41 sec) 
Heartbeat CPU 0 instructions: 50000000 cycles: 17616448 heartbeat IPC: 2.83838 cumulative IPC: 2.83826 (Simulation time: 0 hr 7 min 2 sec) 

Warmup complete CPU 0 instructions: 50000004 cycles: 17616449 (Simulation time: 0 hr 7 min 2 sec) 

Heartbeat CPU 0 instructions: 60000002 cycles: 24463416 heartbeat IPC: 1.4605 cumulative IPC: 1.4605 (Simulation time: 0 hr 8 min 36 sec) 
Heartbeat CPU 0 instructions: 70000000 cycles: 31316168 heartbeat IPC: 1.45927 cumulative IPC: 1.45988 (Simulation time: 0 hr 10 min 4 sec) 
*** Reached end of trace for Core: 0 Repeating trace: /home/mbaradaran/ChampSim/dpc3_traces/server_032.champsimtrace.xz
Heartbeat CPU 0 instructions: 80000003 cycles: 38164042 heartbeat IPC: 1.46031 cumulative IPC: 1.46002 (Simulation time: 0 hr 11 min 33 sec) 
Heartbeat CPU 0 instructions: 90000002 cycles: 44988265 heartbeat IPC: 1.46537 cumulative IPC: 1.46136 (Simulation time: 0 hr 13 min 6 sec) 
Heartbeat CPU 0 instructions: 100000001 cycles: 51828872 heartbeat IPC: 1.46186 cumulative IPC: 1.46146 (Simulation time: 0 hr 14 min 38 sec) 
Finished CPU 0 instructions: 50000002 cycles: 34212425 cumulative IPC: 1.46146 (Simulation time: 0 hr 14 min 38 sec) 

ChampSim completed all CPUs

Region of Interest Statistics

CPU 0 cumulative IPC: 1.46146 instructions: 50000002 cycles: 34212425

SHEET
IPC : 1.46146

L1D TOTAL     ACCESS:   19941088  HIT:   18112569  MISS:    1828519
L1D LOAD      ACCESS:    6832566  HIT:    6038897  MISS:     793669
L1D RFO       ACCESS:    6555268  HIT:    6261360  MISS:     293908
L1D PREFETCH  ACCESS:    6553254  HIT:    5812312  MISS:     740942
L1D WRITEBACK ACCESS:          0  HIT:          0  MISS:          0
L1D PREFETCH  REQUESTED:    6881430  ISSUED:    6748436  USEFUL:     170813  USELESS:     570127
L1D AVERAGE MISS LATENCY: 19.0205 cycles
L1D

SHEET
L1D-total_access : 19941088
L1D-total_hit : 18112569
L1D-total_miss : 1828519
L1D-load_access : 6832566
L1D-load_hit : 6038897
L1D-load_miss : 793669
L1D-rfo_access : 6555268
L1D-rfo_hit : 6261360
L1D-rfo_miss : 293908
L1D-prefetch_access : 6553254
L1D-prefetch_hit : 5812312
L1D-prefetch_miss : 740942
L1D-writeback_access : 0
L1D-writeback_hit : 0
L1D-writeback_miss : 0
L1D-prefetch_requested : 6881430
L1D-prefetch_issued : 6748436
L1D-prefetch_useful : 170813
L1D-prefetch_useless : 570127
L1D-Avg_miss_latency : 19.0205
L1D-Morteza_fill_l2_prefetches : 0

L1I TOTAL     ACCESS:   16229220  HIT:   12133079  MISS:    4096141
L1I LOAD      ACCESS:    9633763  HIT:    9289175  MISS:     344588
L1I RFO       ACCESS:          0  HIT:          0  MISS:          0
L1I PREFETCH  ACCESS:    6595457  HIT:    2843904  MISS:    3751553
L1I WRITEBACK ACCESS:          0  HIT:          0  MISS:          0
L1I PREFETCH  REQUESTED:    6754864  ISSUED:    6754181  USEFUL:    3215959  USELESS:     535602
L1I AVERAGE MISS LATENCY: 16.329 cycles
L1I

SHEET
L1I-total_access : 16229220
L1I-total_hit : 12133079
L1I-total_miss : 4096141
L1I-load_access : 9633763
L1I-load_hit : 9289175
L1I-load_miss : 344588
L1I-rfo_access : 0
L1I-rfo_hit : 0
L1I-rfo_miss : 0
L1I-prefetch_access : 6595457
L1I-prefetch_hit : 2843904
L1I-prefetch_miss : 3751553
L1I-writeback_access : 0
L1I-writeback_hit : 0
L1I-writeback_miss : 0
L1I-prefetch_requested : 6754864
L1I-prefetch_issued : 6754181
L1I-prefetch_useful : 3215959
L1I-prefetch_useless : 535602
L1I-Avg_miss_latency : 16.329
L1I-Morteza_fill_l2_prefetches : 0

L2C TOTAL     ACCESS:    8219157  HIT:    7643090  MISS:     576067
L2C LOAD      ACCESS:     991724  HIT:     902886  MISS:      88838
L2C RFO       ACCESS:     292562  HIT:     245192  MISS:      47370
L2C PREFETCH  ACCESS:    6298461  HIT:    5867187  MISS:     431274
L2C WRITEBACK ACCESS:     636410  HIT:     627825  MISS:       8585
L2C PREFETCH  REQUESTED:    6968014  ISSUED:    6950664  USEFUL:      21620  USELESS:     409528
L2C AVERAGE MISS LATENCY: 33.5561 cycles
L2C

SHEET
L2C-total_access : 8219157
L2C-total_hit : 7643090
L2C-total_miss : 576067
L2C-load_access : 991724
L2C-load_hit : 902886
L2C-load_miss : 88838
L2C-rfo_access : 292562
L2C-rfo_hit : 245192
L2C-rfo_miss : 47370
L2C-prefetch_access : 6298461
L2C-prefetch_hit : 5867187
L2C-prefetch_miss : 431274
L2C-writeback_access : 636410
L2C-writeback_hit : 627825
L2C-writeback_miss : 8585
L2C-prefetch_requested : 6968014
L2C-prefetch_issued : 6950664
L2C-prefetch_useful : 21620
L2C-prefetch_useless : 409528
L2C-Avg_miss_latency : 33.5561
L2C-Morteza_fill_l2_prefetches : 1675178

LLC TOTAL     ACCESS:    2386597  HIT:    2378404  MISS:       8193
LLC LOAD      ACCESS:      88835  HIT:      88288  MISS:        547
LLC RFO       ACCESS:      47370  HIT:      47370  MISS:          0
LLC PREFETCH  ACCESS:    2159298  HIT:    2151674  MISS:       7624
LLC WRITEBACK ACCESS:      91094  HIT:      91072  MISS:         22
LLC PREFETCH  REQUESTED:          0  ISSUED:          0  USEFUL:        378  USELESS:       3035
LLC AVERAGE MISS LATENCY: 153.381 cycles
LLC

SHEET
LLC-total_access : 2386597
LLC-total_hit : 2378404
LLC-total_miss : 8193
LLC-load_access : 88835
LLC-load_hit : 88288
LLC-load_miss : 547
LLC-rfo_access : 47370
LLC-rfo_hit : 47370
LLC-rfo_miss : 0
LLC-prefetch_access : 2159298
LLC-prefetch_hit : 2151674
LLC-prefetch_miss : 7624
LLC-writeback_access : 91094
LLC-writeback_hit : 91072
LLC-writeback_miss : 22
LLC-prefetch_requested : 0
LLC-prefetch_issued : 0
LLC-prefetch_useful : 378
LLC-prefetch_useless : 3035
LLC-Avg_miss_latency : 153.381
LLC-Morteza_fill_l2_prefetches : 1729053

Major fault: 0 Minor fault: 1178



Printing Logs
morteza: start

SHEET
history_access_cntr : 7697014
index_access_cntr : 3288910
sab_access_cntr : 18261342
compactor_access_cntr : 17568262

morteza: end
CPU 0 L1D next line prefetcher final stats

DRAM Statistics
 CHANNEL 0
 RQ ROW_BUFFER_HIT:       1890  ROW_BUFFER_MISS:       6281
 DBUS_CONGESTED:        967
 WQ ROW_BUFFER_HIT:          1  ROW_BUFFER_MISS:         13  FULL:          0

 AVG_CONGESTED_CYCLE: 4

CPU 0 Branch Prediction Accuracy: 99.8762% MPKI: 0.2296 Average ROB Occupancy at Mispredict: 182.999

Branch types
NOT_BRANCH: 40726110 81.4522%
BRANCH_DIRECT_JUMP: 508373 1.01675%
BRANCH_INDIRECT: 180051 0.360102%
BRANCH_CONDITIONAL: 5999654 11.9993%
BRANCH_DIRECT_CALL: 1086739 2.17348%
BRANCH_INDIRECT_CALL: 206109 0.412218%
BRANCH_RETURN: 1292836 2.58567%
BRANCH_OTHER: 0 0%

