Initialize SIGNATURE TABLE
ST_SET: 1
ST_WAY: 256
ST_TAG_BIT: 16
ST_TAG_MASK: ffff

Initialize PATTERN TABLE
PT_SET: 512
PT_WAY: 4
SIG_DELTA_BIT: 7
C_SIG_BIT: 4
C_DELTA_BIT: 4

Initialize PREFETCH FILTER
FILTER_SET: 1024

*** ChampSim Multicore Out-of-Order Simulator ***

Warmup Instructions: 50000000
Simulation Instructions: 50000000
Number of CPUs: 1
LLC sets: 2048
LLC ways: 16
Off-chip DRAM Size: 4096 MB Channels: 1 Width: 64-bit Data Rate: 3200 MT/s

CPU 0 runs /home/mbaradaran/ChampSim/dpc3_traces/server_025.champsimtrace.xz
CPU 0 L1D next line prefetcher
Heartbeat CPU 0 instructions: 10000003 cycles: 3523409 heartbeat IPC: 2.83816 cumulative IPC: 2.83816 (Simulation time: 0 hr 1 min 22 sec) 
Heartbeat CPU 0 instructions: 20000000 cycles: 7054416 heartbeat IPC: 2.83205 cumulative IPC: 2.8351 (Simulation time: 0 hr 2 min 40 sec) 
Heartbeat CPU 0 instructions: 30000001 cycles: 10577430 heartbeat IPC: 2.83848 cumulative IPC: 2.83623 (Simulation time: 0 hr 4 min 0 sec) 
Heartbeat CPU 0 instructions: 40000003 cycles: 14106412 heartbeat IPC: 2.83368 cumulative IPC: 2.83559 (Simulation time: 0 hr 5 min 24 sec) 
Heartbeat CPU 0 instructions: 50000001 cycles: 17633453 heartbeat IPC: 2.83524 cumulative IPC: 2.83552 (Simulation time: 0 hr 6 min 43 sec) 

Warmup complete CPU 0 instructions: 50000001 cycles: 17633453 (Simulation time: 0 hr 6 min 43 sec) 

Heartbeat CPU 0 instructions: 60000002 cycles: 24457089 heartbeat IPC: 1.46549 cumulative IPC: 1.46549 (Simulation time: 0 hr 8 min 3 sec) 
Heartbeat CPU 0 instructions: 70000000 cycles: 31402591 heartbeat IPC: 1.43978 cumulative IPC: 1.45252 (Simulation time: 0 hr 9 min 24 sec) 
Heartbeat CPU 0 instructions: 80000002 cycles: 38250093 heartbeat IPC: 1.46039 cumulative IPC: 1.45514 (Simulation time: 0 hr 10 min 44 sec) 
Heartbeat CPU 0 instructions: 90000001 cycles: 44845961 heartbeat IPC: 1.5161 cumulative IPC: 1.46991 (Simulation time: 0 hr 12 min 0 sec) 
Heartbeat CPU 0 instructions: 100000003 cycles: 51279281 heartbeat IPC: 1.55441 cumulative IPC: 1.48607 (Simulation time: 0 hr 13 min 19 sec) 
Finished CPU 0 instructions: 50000002 cycles: 33645828 cumulative IPC: 1.48607 (Simulation time: 0 hr 13 min 19 sec) 

ChampSim completed all CPUs

Region of Interest Statistics

CPU 0 cumulative IPC: 1.48607 instructions: 50000002 cycles: 33645828

SHEET
IPC : 1.48607

L1D TOTAL     ACCESS:   20134835  HIT:   18709312  MISS:    1425523
L1D LOAD      ACCESS:    7031084  HIT:    6413416  MISS:     617668
L1D RFO       ACCESS:    6384927  HIT:    6136510  MISS:     248417
L1D PREFETCH  ACCESS:    6718824  HIT:    6159386  MISS:     559438
L1D WRITEBACK ACCESS:          0  HIT:          0  MISS:          0
L1D PREFETCH  REQUESTED:    7072230  ISSUED:    6897533  USEFUL:     132107  USELESS:     427325
L1D AVERAGE MISS LATENCY: 22.5408 cycles
L1D

SHEET
L1D-total_access : 20134835
L1D-total_hit : 18709312
L1D-total_miss : 1425523
L1D-load_access : 7031084
L1D-load_hit : 6413416
L1D-load_miss : 617668
L1D-rfo_access : 6384927
L1D-rfo_hit : 6136510
L1D-rfo_miss : 248417
L1D-prefetch_access : 6718824
L1D-prefetch_hit : 6159386
L1D-prefetch_miss : 559438
L1D-writeback_access : 0
L1D-writeback_hit : 0
L1D-writeback_miss : 0
L1D-prefetch_requested : 7072230
L1D-prefetch_issued : 6897533
L1D-prefetch_useful : 132107
L1D-prefetch_useless : 427325
L1D-Avg_miss_latency : 22.5408
L1D-Morteza_fill_l2_prefetches : 0

L1I TOTAL     ACCESS:   16272566  HIT:   12701013  MISS:    3571553
L1I LOAD      ACCESS:    9455443  HIT:    9112425  MISS:     343018
L1I RFO       ACCESS:          0  HIT:          0  MISS:          0
L1I PREFETCH  ACCESS:    6817123  HIT:    3588588  MISS:    3228535
L1I WRITEBACK ACCESS:          0  HIT:          0  MISS:          0
L1I PREFETCH  REQUESTED:    6986580  ISSUED:    6983967  USEFUL:    2545457  USELESS:     683122
L1I AVERAGE MISS LATENCY: 16.8899 cycles
L1I

SHEET
L1I-total_access : 16272566
L1I-total_hit : 12701013
L1I-total_miss : 3571553
L1I-load_access : 9455443
L1I-load_hit : 9112425
L1I-load_miss : 343018
L1I-rfo_access : 0
L1I-rfo_hit : 0
L1I-rfo_miss : 0
L1I-prefetch_access : 6817123
L1I-prefetch_hit : 3588588
L1I-prefetch_miss : 3228535
L1I-writeback_access : 0
L1I-writeback_hit : 0
L1I-writeback_miss : 0
L1I-prefetch_requested : 6986580
L1I-prefetch_issued : 6983967
L1I-prefetch_useful : 2545457
L1I-prefetch_useless : 683122
L1I-Avg_miss_latency : 16.8899
L1I-Morteza_fill_l2_prefetches : 0

L2C TOTAL     ACCESS:    6748122  HIT:    6135289  MISS:     612833
L2C LOAD      ACCESS:     829590  HIT:     726323  MISS:     103267
L2C RFO       ACCESS:     246797  HIT:     172301  MISS:      74496
L2C PREFETCH  ACCESS:    5175009  HIT:    4743259  MISS:     431750
L2C WRITEBACK ACCESS:     496726  HIT:     493406  MISS:       3320
L2C PREFETCH  REQUESTED:    5274578  ISSUED:    5269161  USEFUL:      29527  USELESS:     402566
L2C AVERAGE MISS LATENCY: 39.301 cycles
L2C

SHEET
L2C-total_access : 6748122
L2C-total_hit : 6135289
L2C-total_miss : 612833
L2C-load_access : 829590
L2C-load_hit : 726323
L2C-load_miss : 103267
L2C-rfo_access : 246797
L2C-rfo_hit : 172301
L2C-rfo_miss : 74496
L2C-prefetch_access : 5175009
L2C-prefetch_hit : 4743259
L2C-prefetch_miss : 431750
L2C-writeback_access : 496726
L2C-writeback_hit : 493406
L2C-writeback_miss : 3320
L2C-prefetch_requested : 5274578
L2C-prefetch_issued : 5269161
L2C-prefetch_useful : 29527
L2C-prefetch_useless : 402566
L2C-Avg_miss_latency : 39.301
L2C-Morteza_fill_l2_prefetches : 1276929

LLC TOTAL     ACCESS:    1999763  HIT:    1970851  MISS:      28912
LLC LOAD      ACCESS:     103151  HIT:      99733  MISS:       3418
LLC RFO       ACCESS:      74490  HIT:      63782  MISS:      10708
LLC PREFETCH  ACCESS:    1701299  HIT:    1686712  MISS:      14587
LLC WRITEBACK ACCESS:     120823  HIT:     120624  MISS:        199
LLC PREFETCH  REQUESTED:          0  ISSUED:          0  USEFUL:       1516  USELESS:      12736
LLC AVERAGE MISS LATENCY: 177.908 cycles
LLC

SHEET
LLC-total_access : 1999763
LLC-total_hit : 1970851
LLC-total_miss : 28912
LLC-load_access : 103151
LLC-load_hit : 99733
LLC-load_miss : 3418
LLC-rfo_access : 74490
LLC-rfo_hit : 63782
LLC-rfo_miss : 10708
LLC-prefetch_access : 1701299
LLC-prefetch_hit : 1686712
LLC-prefetch_miss : 14587
LLC-writeback_access : 120823
LLC-writeback_hit : 120624
LLC-writeback_miss : 199
LLC-prefetch_requested : 0
LLC-prefetch_issued : 0
LLC-prefetch_useful : 1516
LLC-prefetch_useless : 12736
LLC-Avg_miss_latency : 177.908
LLC-Morteza_fill_l2_prefetches : 1271986

Major fault: 0 Minor fault: 2457



Printing Logs
morteza: start

SHEET
history_access_cntr : 7388531
index_access_cntr : 3061716
sab_access_cntr : 18168304
compactor_access_cntr : 17196114

morteza: end
CPU 0 L1D next line prefetcher final stats

DRAM Statistics
 CHANNEL 0
 RQ ROW_BUFFER_HIT:       9202  ROW_BUFFER_MISS:      19502
 DBUS_CONGESTED:      18668
 WQ ROW_BUFFER_HIT:       1272  ROW_BUFFER_MISS:      11683  FULL:          0

 AVG_CONGESTED_CYCLE: 6

CPU 0 Branch Prediction Accuracy: 99.8142% MPKI: 0.34676 Average ROB Occupancy at Mispredict: 167.885

Branch types
NOT_BRANCH: 40668818 81.3376%
BRANCH_DIRECT_JUMP: 531700 1.0634%
BRANCH_INDIRECT: 199025 0.39805%
BRANCH_CONDITIONAL: 6211480 12.423%
BRANCH_DIRECT_CALL: 1010910 2.02182%
BRANCH_INDIRECT_CALL: 183501 0.367002%
BRANCH_RETURN: 1194412 2.38882%
BRANCH_OTHER: 0 0%

