Initialize SIGNATURE TABLE
ST_SET: 1
ST_WAY: 256
ST_TAG_BIT: 16
ST_TAG_MASK: ffff

Initialize PATTERN TABLE
PT_SET: 512
PT_WAY: 4
SIG_DELTA_BIT: 7
C_SIG_BIT: 4
C_DELTA_BIT: 4

Initialize PREFETCH FILTER
FILTER_SET: 1024

*** ChampSim Multicore Out-of-Order Simulator ***

Warmup Instructions: 50000000
Simulation Instructions: 50000000
Number of CPUs: 1
LLC sets: 2048
LLC ways: 16
Off-chip DRAM Size: 4096 MB Channels: 1 Width: 64-bit Data Rate: 3200 MT/s

CPU 0 runs /home/mbaradaran/ChampSim/dpc3_traces/server_020.champsimtrace.xz
CPU 0 L1D next line prefetcher
Heartbeat CPU 0 instructions: 10000003 cycles: 3622235 heartbeat IPC: 2.76073 cumulative IPC: 2.76073 (Simulation time: 0 hr 1 min 33 sec) 
Heartbeat CPU 0 instructions: 20000002 cycles: 7248479 heartbeat IPC: 2.75767 cumulative IPC: 2.7592 (Simulation time: 0 hr 2 min 53 sec) 
Heartbeat CPU 0 instructions: 30000001 cycles: 10867991 heartbeat IPC: 2.7628 cumulative IPC: 2.7604 (Simulation time: 0 hr 4 min 19 sec) 
Heartbeat CPU 0 instructions: 40000002 cycles: 14489120 heartbeat IPC: 2.76157 cumulative IPC: 2.76069 (Simulation time: 0 hr 5 min 44 sec) 
Heartbeat CPU 0 instructions: 50000001 cycles: 18123616 heartbeat IPC: 2.75141 cumulative IPC: 2.75883 (Simulation time: 0 hr 7 min 5 sec) 

Warmup complete CPU 0 instructions: 50000001 cycles: 18123616 (Simulation time: 0 hr 7 min 5 sec) 

Heartbeat CPU 0 instructions: 60000003 cycles: 35642466 heartbeat IPC: 0.570814 cumulative IPC: 0.570814 (Simulation time: 0 hr 8 min 57 sec) 
Heartbeat CPU 0 instructions: 70000002 cycles: 53095077 heartbeat IPC: 0.57298 cumulative IPC: 0.571895 (Simulation time: 0 hr 10 min 52 sec) 
Heartbeat CPU 0 instructions: 80000002 cycles: 70456257 heartbeat IPC: 0.575998 cumulative IPC: 0.573256 (Simulation time: 0 hr 12 min 47 sec) 
Heartbeat CPU 0 instructions: 90000001 cycles: 87819630 heartbeat IPC: 0.575925 cumulative IPC: 0.573921 (Simulation time: 0 hr 14 min 48 sec) 
Heartbeat CPU 0 instructions: 100000002 cycles: 105158537 heartbeat IPC: 0.576738 cumulative IPC: 0.574482 (Simulation time: 0 hr 16 min 50 sec) 
Finished CPU 0 instructions: 50000001 cycles: 87034921 cumulative IPC: 0.574482 (Simulation time: 0 hr 16 min 50 sec) 

ChampSim completed all CPUs

Region of Interest Statistics

CPU 0 cumulative IPC: 0.574482 instructions: 50000001 cycles: 87034921

SHEET
IPC : 0.574482

L1D TOTAL     ACCESS:   18746683  HIT:   16542436  MISS:    2204247
L1D LOAD      ACCESS:    7106917  HIT:    6389551  MISS:     717366
L1D RFO       ACCESS:    5806209  HIT:    4860261  MISS:     945948
L1D PREFETCH  ACCESS:    5833557  HIT:    5292624  MISS:     540933
L1D WRITEBACK ACCESS:          0  HIT:          0  MISS:          0
L1D PREFETCH  REQUESTED:    7149898  ISSUED:    6948427  USEFUL:     201656  USELESS:     339196
L1D AVERAGE MISS LATENCY: 173.83 cycles
L1D

SHEET
L1D-total_access : 18746683
L1D-total_hit : 16542436
L1D-total_miss : 2204247
L1D-load_access : 7106917
L1D-load_hit : 6389551
L1D-load_miss : 717366
L1D-rfo_access : 5806209
L1D-rfo_hit : 4860261
L1D-rfo_miss : 945948
L1D-prefetch_access : 5833557
L1D-prefetch_hit : 5292624
L1D-prefetch_miss : 540933
L1D-writeback_access : 0
L1D-writeback_hit : 0
L1D-writeback_miss : 0
L1D-prefetch_requested : 7149898
L1D-prefetch_issued : 6948427
L1D-prefetch_useful : 201656
L1D-prefetch_useless : 339196
L1D-Avg_miss_latency : 173.83
L1D-Morteza_fill_l2_prefetches : 0

L1I TOTAL     ACCESS:   15498530  HIT:   12582344  MISS:    2916186
L1I LOAD      ACCESS:   10024424  HIT:    9741910  MISS:     282514
L1I RFO       ACCESS:          0  HIT:          0  MISS:          0
L1I PREFETCH  ACCESS:    5474106  HIT:    2840434  MISS:    2633672
L1I WRITEBACK ACCESS:          0  HIT:          0  MISS:          0
L1I PREFETCH  REQUESTED:    5576752  ISSUED:    5575957  USEFUL:    2341700  USELESS:     291986
L1I AVERAGE MISS LATENCY: 16.8671 cycles
L1I

SHEET
L1I-total_access : 15498530
L1I-total_hit : 12582344
L1I-total_miss : 2916186
L1I-load_access : 10024424
L1I-load_hit : 9741910
L1I-load_miss : 282514
L1I-rfo_access : 0
L1I-rfo_hit : 0
L1I-rfo_miss : 0
L1I-prefetch_access : 5474106
L1I-prefetch_hit : 2840434
L1I-prefetch_miss : 2633672
L1I-writeback_access : 0
L1I-writeback_hit : 0
L1I-writeback_miss : 0
L1I-prefetch_requested : 5576752
L1I-prefetch_issued : 5575957
L1I-prefetch_useful : 2341700
L1I-prefetch_useless : 291986
L1I-Avg_miss_latency : 16.8671
L1I-Morteza_fill_l2_prefetches : 0

L2C TOTAL     ACCESS:    7575468  HIT:    5728002  MISS:    1847466
L2C LOAD      ACCESS:     713195  HIT:     446736  MISS:     266459
L2C RFO       ACCESS:     945501  HIT:      20252  MISS:     925249
L2C PREFETCH  ACCESS:    4753193  HIT:    4100140  MISS:     653053
L2C WRITEBACK ACCESS:    1163579  HIT:    1160874  MISS:       2705
L2C PREFETCH  REQUESTED:    4794204  ISSUED:    4790592  USEFUL:      27237  USELESS:     624717
L2C AVERAGE MISS LATENCY: 211.328 cycles
L2C

SHEET
L2C-total_access : 7575468
L2C-total_hit : 5728002
L2C-total_miss : 1847466
L2C-load_access : 713195
L2C-load_hit : 446736
L2C-load_miss : 266459
L2C-rfo_access : 945501
L2C-rfo_hit : 20252
L2C-rfo_miss : 925249
L2C-prefetch_access : 4753193
L2C-prefetch_hit : 4100140
L2C-prefetch_miss : 653053
L2C-writeback_access : 1163579
L2C-writeback_hit : 1160874
L2C-writeback_miss : 2705
L2C-prefetch_requested : 4794204
L2C-prefetch_issued : 4790592
L2C-prefetch_useful : 27237
L2C-prefetch_useless : 624717
L2C-Avg_miss_latency : 211.328
L2C-Morteza_fill_l2_prefetches : 1317048

LLC TOTAL     ACCESS:    4187309  HIT:    2721321  MISS:    1465988
LLC LOAD      ACCESS:     266371  HIT:     161643  MISS:     104728
LLC RFO       ACCESS:     925234  HIT:     138436  MISS:     786798
LLC PREFETCH  ACCESS:    1898613  HIT:    1326145  MISS:     572468
LLC WRITEBACK ACCESS:    1097091  HIT:    1095097  MISS:       1994
LLC PREFETCH  REQUESTED:          0  ISSUED:          0  USEFUL:      34789  USELESS:     537563
LLC AVERAGE MISS LATENCY: 276.115 cycles
LLC

SHEET
LLC-total_access : 4187309
LLC-total_hit : 2721321
LLC-total_miss : 1465988
LLC-load_access : 266371
LLC-load_hit : 161643
LLC-load_miss : 104728
LLC-rfo_access : 925234
LLC-rfo_hit : 138436
LLC-rfo_miss : 786798
LLC-prefetch_access : 1898613
LLC-prefetch_hit : 1326145
LLC-prefetch_miss : 572468
LLC-writeback_access : 1097091
LLC-writeback_hit : 1095097
LLC-writeback_miss : 1994
LLC-prefetch_requested : 0
LLC-prefetch_issued : 0
LLC-prefetch_useful : 34789
LLC-prefetch_useless : 537563
LLC-Avg_miss_latency : 276.115
LLC-Morteza_fill_l2_prefetches : 994886

Major fault: 0 Minor fault: 22091



Printing Logs
morteza: start

SHEET
history_access_cntr : 6052068
index_access_cntr : 2586997
sab_access_cntr : 16519961
compactor_access_cntr : 15886158

morteza: end
CPU 0 L1D next line prefetcher final stats

DRAM Statistics
 CHANNEL 0
 RQ ROW_BUFFER_HIT:     418313  ROW_BUFFER_MISS:    1045411
 DBUS_CONGESTED:    1458279
 WQ ROW_BUFFER_HIT:     246142  ROW_BUFFER_MISS:     646995  FULL:          0

 AVG_CONGESTED_CYCLE: 6

CPU 0 Branch Prediction Accuracy: 99.712% MPKI: 0.47638 Average ROB Occupancy at Mispredict: 208.355

Branch types
NOT_BRANCH: 41729434 83.4589%
BRANCH_DIRECT_JUMP: 458220 0.91644%
BRANCH_INDIRECT: 49088 0.098176%
BRANCH_CONDITIONAL: 5938520 11.877%
BRANCH_DIRECT_CALL: 745129 1.49026%
BRANCH_INDIRECT_CALL: 167107 0.334214%
BRANCH_RETURN: 912219 1.82444%
BRANCH_OTHER: 0 0%

