Initialize SIGNATURE TABLE
ST_SET: 1
ST_WAY: 256
ST_TAG_BIT: 16
ST_TAG_MASK: ffff

Initialize PATTERN TABLE
PT_SET: 512
PT_WAY: 4
SIG_DELTA_BIT: 7
C_SIG_BIT: 4
C_DELTA_BIT: 4

Initialize PREFETCH FILTER
FILTER_SET: 1024

*** ChampSim Multicore Out-of-Order Simulator ***

Warmup Instructions: 50000000
Simulation Instructions: 50000000
Number of CPUs: 1
LLC sets: 2048
LLC ways: 16
Off-chip DRAM Size: 4096 MB Channels: 1 Width: 64-bit Data Rate: 3200 MT/s

CPU 0 runs /home/mbaradaran/ChampSim/dpc3_traces/server_010.champsimtrace.xz
CPU 0 L1D next line prefetcher
Heartbeat CPU 0 instructions: 10000000 cycles: 3194286 heartbeat IPC: 3.13059 cumulative IPC: 3.13059 (Simulation time: 0 hr 1 min 11 sec) 
Heartbeat CPU 0 instructions: 20000002 cycles: 6384407 heartbeat IPC: 3.13468 cumulative IPC: 3.13263 (Simulation time: 0 hr 2 min 28 sec) 
Heartbeat CPU 0 instructions: 30000001 cycles: 9578275 heartbeat IPC: 3.131 cumulative IPC: 3.13209 (Simulation time: 0 hr 3 min 46 sec) 
Heartbeat CPU 0 instructions: 40000000 cycles: 12768450 heartbeat IPC: 3.13462 cumulative IPC: 3.13272 (Simulation time: 0 hr 5 min 9 sec) 
Heartbeat CPU 0 instructions: 50000003 cycles: 15964516 heartbeat IPC: 3.12885 cumulative IPC: 3.13195 (Simulation time: 0 hr 6 min 26 sec) 

Warmup complete CPU 0 instructions: 50000003 cycles: 15964516 (Simulation time: 0 hr 6 min 26 sec) 

Heartbeat CPU 0 instructions: 60000001 cycles: 23842206 heartbeat IPC: 1.26941 cumulative IPC: 1.26941 (Simulation time: 0 hr 7 min 44 sec) 
Heartbeat CPU 0 instructions: 70000000 cycles: 31610087 heartbeat IPC: 1.28735 cumulative IPC: 1.27832 (Simulation time: 0 hr 9 min 4 sec) 
Heartbeat CPU 0 instructions: 80000003 cycles: 39388946 heartbeat IPC: 1.28554 cumulative IPC: 1.28071 (Simulation time: 0 hr 10 min 21 sec) 
Heartbeat CPU 0 instructions: 90000002 cycles: 46936175 heartbeat IPC: 1.32499 cumulative IPC: 1.2915 (Simulation time: 0 hr 11 min 32 sec) 
Heartbeat CPU 0 instructions: 100000000 cycles: 67722046 heartbeat IPC: 0.481096 cumulative IPC: 0.966043 (Simulation time: 0 hr 13 min 34 sec) 
Finished CPU 0 instructions: 50000001 cycles: 51757537 cumulative IPC: 0.966043 (Simulation time: 0 hr 13 min 34 sec) 

ChampSim completed all CPUs

Region of Interest Statistics

CPU 0 cumulative IPC: 0.966043 instructions: 50000001 cycles: 51757537

SHEET
IPC : 0.966043

L1D TOTAL     ACCESS:   20104615  HIT:   16879283  MISS:    3225332
L1D LOAD      ACCESS:    7802636  HIT:    6210489  MISS:    1592147
L1D RFO       ACCESS:    4718552  HIT:    4624201  MISS:      94351
L1D PREFETCH  ACCESS:    7583427  HIT:    6044593  MISS:    1538834
L1D WRITEBACK ACCESS:          0  HIT:          0  MISS:          0
L1D PREFETCH  REQUESTED:    7835203  ISSUED:    7738836  USEFUL:     118304  USELESS:    1420502
L1D AVERAGE MISS LATENCY: 22.6402 cycles
L1D

SHEET
L1D-total_access : 20104615
L1D-total_hit : 16879283
L1D-total_miss : 3225332
L1D-load_access : 7802636
L1D-load_hit : 6210489
L1D-load_miss : 1592147
L1D-rfo_access : 4718552
L1D-rfo_hit : 4624201
L1D-rfo_miss : 94351
L1D-prefetch_access : 7583427
L1D-prefetch_hit : 6044593
L1D-prefetch_miss : 1538834
L1D-writeback_access : 0
L1D-writeback_hit : 0
L1D-writeback_miss : 0
L1D-prefetch_requested : 7835203
L1D-prefetch_issued : 7738836
L1D-prefetch_useful : 118304
L1D-prefetch_useless : 1420502
L1D-Avg_miss_latency : 22.6402
L1D-Morteza_fill_l2_prefetches : 0

L1I TOTAL     ACCESS:   15378150  HIT:   12964006  MISS:    2414144
L1I LOAD      ACCESS:    9990603  HIT:    9652808  MISS:     337795
L1I RFO       ACCESS:          0  HIT:          0  MISS:          0
L1I PREFETCH  ACCESS:    5387547  HIT:    3311198  MISS:    2076349
L1I WRITEBACK ACCESS:          0  HIT:          0  MISS:          0
L1I PREFETCH  REQUESTED:    5536674  ISSUED:    5511889  USEFUL:    1514757  USELESS:     561474
L1I AVERAGE MISS LATENCY: 24.9119 cycles
L1I

SHEET
L1I-total_access : 15378150
L1I-total_hit : 12964006
L1I-total_miss : 2414144
L1I-load_access : 9990603
L1I-load_hit : 9652808
L1I-load_miss : 337795
L1I-rfo_access : 0
L1I-rfo_hit : 0
L1I-rfo_miss : 0
L1I-prefetch_access : 5387547
L1I-prefetch_hit : 3311198
L1I-prefetch_miss : 2076349
L1I-writeback_access : 0
L1I-writeback_hit : 0
L1I-writeback_miss : 0
L1I-prefetch_requested : 5536674
L1I-prefetch_issued : 5511889
L1I-prefetch_useful : 1514757
L1I-prefetch_useless : 561474
L1I-Avg_miss_latency : 24.9119
L1I-Morteza_fill_l2_prefetches : 0

L2C TOTAL     ACCESS:    7348274  HIT:    6246025  MISS:    1102249
L2C LOAD      ACCESS:    1837215  HIT:    1593720  MISS:     243495
L2C RFO       ACCESS:      93314  HIT:      50096  MISS:      43218
L2C PREFETCH  ACCESS:    5152365  HIT:    4337813  MISS:     814552
L2C WRITEBACK ACCESS:     265380  HIT:     264396  MISS:        984
L2C PREFETCH  REQUESTED:    7284339  ISSUED:    7278674  USEFUL:      63381  USELESS:     751998
L2C AVERAGE MISS LATENCY: 46.7506 cycles
L2C

SHEET
L2C-total_access : 7348274
L2C-total_hit : 6246025
L2C-total_miss : 1102249
L2C-load_access : 1837215
L2C-load_hit : 1593720
L2C-load_miss : 243495
L2C-rfo_access : 93314
L2C-rfo_hit : 50096
L2C-rfo_miss : 43218
L2C-prefetch_access : 5152365
L2C-prefetch_hit : 4337813
L2C-prefetch_miss : 814552
L2C-writeback_access : 265380
L2C-writeback_hit : 264396
L2C-writeback_miss : 984
L2C-prefetch_requested : 7284339
L2C-prefetch_issued : 7278674
L2C-prefetch_useful : 63381
L2C-prefetch_useless : 751998
L2C-Avg_miss_latency : 46.7506
L2C-Morteza_fill_l2_prefetches : 1463010

LLC TOTAL     ACCESS:    2587971  HIT:    2429320  MISS:     158651
LLC LOAD      ACCESS:     242834  HIT:     220342  MISS:      22492
LLC RFO       ACCESS:      43213  HIT:      34333  MISS:       8880
LLC PREFETCH  ACCESS:    2154658  HIT:    2027756  MISS:     126902
LLC WRITEBACK ACCESS:     147266  HIT:     146889  MISS:        377
LLC PREFETCH  REQUESTED:          0  ISSUED:          0  USEFUL:      13583  USELESS:     112327
LLC AVERAGE MISS LATENCY: 171.192 cycles
LLC

SHEET
LLC-total_access : 2587971
LLC-total_hit : 2429320
LLC-total_miss : 158651
LLC-load_access : 242834
LLC-load_hit : 220342
LLC-load_miss : 22492
LLC-rfo_access : 43213
LLC-rfo_hit : 34333
LLC-rfo_miss : 8880
LLC-prefetch_access : 2154658
LLC-prefetch_hit : 2027756
LLC-prefetch_miss : 126902
LLC-writeback_access : 147266
LLC-writeback_hit : 146889
LLC-writeback_miss : 377
LLC-prefetch_requested : 0
LLC-prefetch_issued : 0
LLC-prefetch_useful : 13583
LLC-prefetch_useless : 112327
LLC-Avg_miss_latency : 171.192
LLC-Morteza_fill_l2_prefetches : 1317261

Major fault: 0 Minor fault: 5593



Printing Logs
morteza: start

SHEET
history_access_cntr : 5238488
index_access_cntr : 2155727
sab_access_cntr : 15437133
compactor_access_cntr : 14913281

morteza: end
CPU 0 L1D next line prefetcher final stats

DRAM Statistics
 CHANNEL 0
 RQ ROW_BUFFER_HIT:      25191  ROW_BUFFER_MISS:     133070
 DBUS_CONGESTED:      66957
 WQ ROW_BUFFER_HIT:      11210  ROW_BUFFER_MISS:      44570  FULL:          0

 AVG_CONGESTED_CYCLE: 5

CPU 0 Branch Prediction Accuracy: 99.5528% MPKI: 0.89798 Average ROB Occupancy at Mispredict: 119.684

Branch types
NOT_BRANCH: 39958768 79.9175%
BRANCH_DIRECT_JUMP: 449946 0.899892%
BRANCH_INDIRECT: 140210 0.28042%
BRANCH_CONDITIONAL: 7679667 15.3593%
BRANCH_DIRECT_CALL: 701578 1.40316%
BRANCH_INDIRECT_CALL: 168971 0.337942%
BRANCH_RETURN: 900560 1.80112%
BRANCH_OTHER: 0 0%

