Initialize SIGNATURE TABLE
ST_SET: 1
ST_WAY: 256
ST_TAG_BIT: 16
ST_TAG_MASK: ffff

Initialize PATTERN TABLE
PT_SET: 512
PT_WAY: 4
SIG_DELTA_BIT: 7
C_SIG_BIT: 4
C_DELTA_BIT: 4

Initialize PREFETCH FILTER
FILTER_SET: 1024

*** ChampSim Multicore Out-of-Order Simulator ***

Warmup Instructions: 50000000
Simulation Instructions: 50000000
Number of CPUs: 1
LLC sets: 2048
LLC ways: 16
Off-chip DRAM Size: 4096 MB Channels: 1 Width: 64-bit Data Rate: 3200 MT/s

CPU 0 runs /home/mbaradaran/ChampSim/dpc3_traces/spec_x264_001.champsimtrace.xz
CPU 0 L1D next line prefetcher
Heartbeat CPU 0 instructions: 10000002 cycles: 3059768 heartbeat IPC: 3.26822 cumulative IPC: 3.26822 (Simulation time: 0 hr 0 min 55 sec) 
Heartbeat CPU 0 instructions: 20000002 cycles: 6109864 heartbeat IPC: 3.27859 cumulative IPC: 3.2734 (Simulation time: 0 hr 1 min 45 sec) 
Heartbeat CPU 0 instructions: 30000002 cycles: 9145453 heartbeat IPC: 3.29425 cumulative IPC: 3.28032 (Simulation time: 0 hr 2 min 34 sec) 
Heartbeat CPU 0 instructions: 40000000 cycles: 12189912 heartbeat IPC: 3.28466 cumulative IPC: 3.2814 (Simulation time: 0 hr 3 min 23 sec) 
Heartbeat CPU 0 instructions: 50000000 cycles: 15232913 heartbeat IPC: 3.28623 cumulative IPC: 3.28237 (Simulation time: 0 hr 4 min 10 sec) 

Warmup complete CPU 0 instructions: 50000004 cycles: 15232914 (Simulation time: 0 hr 4 min 10 sec) 

Heartbeat CPU 0 instructions: 60000002 cycles: 21218328 heartbeat IPC: 1.67073 cumulative IPC: 1.67073 (Simulation time: 0 hr 4 min 41 sec) 
Heartbeat CPU 0 instructions: 70000000 cycles: 27187245 heartbeat IPC: 1.67535 cumulative IPC: 1.67303 (Simulation time: 0 hr 5 min 10 sec) 
Heartbeat CPU 0 instructions: 80000003 cycles: 33309943 heartbeat IPC: 1.63327 cumulative IPC: 1.65956 (Simulation time: 0 hr 5 min 41 sec) 
Heartbeat CPU 0 instructions: 90000002 cycles: 39404370 heartbeat IPC: 1.64084 cumulative IPC: 1.65484 (Simulation time: 0 hr 6 min 11 sec) 
Heartbeat CPU 0 instructions: 100000002 cycles: 45361884 heartbeat IPC: 1.67855 cumulative IPC: 1.65953 (Simulation time: 0 hr 6 min 40 sec) 
Finished CPU 0 instructions: 50000002 cycles: 30128971 cumulative IPC: 1.65953 (Simulation time: 0 hr 6 min 40 sec) 

ChampSim completed all CPUs

Region of Interest Statistics

CPU 0 cumulative IPC: 1.65953 instructions: 50000002 cycles: 30128971

SHEET
IPC : 1.65953

L1D TOTAL     ACCESS:   12990245  HIT:   12829129  MISS:     161116
L1D LOAD      ACCESS:    5108366  HIT:    5053218  MISS:      55148
L1D RFO       ACCESS:    2881022  HIT:    2846794  MISS:      34228
L1D PREFETCH  ACCESS:    5000857  HIT:    4929117  MISS:      71740
L1D WRITEBACK ACCESS:          0  HIT:          0  MISS:          0
L1D PREFETCH  REQUESTED:    5124925  ISSUED:    5057178  USEFUL:      25840  USELESS:      45709
L1D AVERAGE MISS LATENCY: 40.4063 cycles
L1D

SHEET
L1D-total_access : 12990245
L1D-total_hit : 12829129
L1D-total_miss : 161116
L1D-load_access : 5108366
L1D-load_hit : 5053218
L1D-load_miss : 55148
L1D-rfo_access : 2881022
L1D-rfo_hit : 2846794
L1D-rfo_miss : 34228
L1D-prefetch_access : 5000857
L1D-prefetch_hit : 4929117
L1D-prefetch_miss : 71740
L1D-writeback_access : 0
L1D-writeback_hit : 0
L1D-writeback_miss : 0
L1D-prefetch_requested : 5124925
L1D-prefetch_issued : 5057178
L1D-prefetch_useful : 25840
L1D-prefetch_useless : 45709
L1D-Avg_miss_latency : 40.4063
L1D-Morteza_fill_l2_prefetches : 0

L1I TOTAL     ACCESS:    9041485  HIT:    8696454  MISS:     345031
L1I LOAD      ACCESS:    8045873  HIT:    8003146  MISS:      42727
L1I RFO       ACCESS:          0  HIT:          0  MISS:          0
L1I PREFETCH  ACCESS:     995612  HIT:     693308  MISS:     302304
L1I WRITEBACK ACCESS:          0  HIT:          0  MISS:          0
L1I PREFETCH  REQUESTED:    1006924  ISSUED:    1006862  USEFUL:     233552  USELESS:      68758
L1I AVERAGE MISS LATENCY: 14.3629 cycles
L1I

SHEET
L1I-total_access : 9041485
L1I-total_hit : 8696454
L1I-total_miss : 345031
L1I-load_access : 8045873
L1I-load_hit : 8003146
L1I-load_miss : 42727
L1I-rfo_access : 0
L1I-rfo_hit : 0
L1I-rfo_miss : 0
L1I-prefetch_access : 995612
L1I-prefetch_hit : 693308
L1I-prefetch_miss : 302304
L1I-writeback_access : 0
L1I-writeback_hit : 0
L1I-writeback_miss : 0
L1I-prefetch_requested : 1006924
L1I-prefetch_issued : 1006862
L1I-prefetch_useful : 233552
L1I-prefetch_useless : 68758
L1I-Avg_miss_latency : 14.3629
L1I-Morteza_fill_l2_prefetches : 0

L2C TOTAL     ACCESS:     739097  HIT:     700682  MISS:      38415
L2C LOAD      ACCESS:      94781  HIT:      88906  MISS:       5875
L2C RFO       ACCESS:      33983  HIT:      21917  MISS:      12066
L2C PREFETCH  ACCESS:     567249  HIT:     546844  MISS:      20405
L2C WRITEBACK ACCESS:      43084  HIT:      43015  MISS:         69
L2C PREFETCH  REQUESTED:     578627  ISSUED:     578142  USEFUL:       9027  USELESS:      11614
L2C AVERAGE MISS LATENCY: 107.586 cycles
L2C

SHEET
L2C-total_access : 739097
L2C-total_hit : 700682
L2C-total_miss : 38415
L2C-load_access : 94781
L2C-load_hit : 88906
L2C-load_miss : 5875
L2C-rfo_access : 33983
L2C-rfo_hit : 21917
L2C-rfo_miss : 12066
L2C-prefetch_access : 567249
L2C-prefetch_hit : 546844
L2C-prefetch_miss : 20405
L2C-writeback_access : 43084
L2C-writeback_hit : 43015
L2C-writeback_miss : 69
L2C-prefetch_requested : 578627
L2C-prefetch_issued : 578142
L2C-prefetch_useful : 9027
L2C-prefetch_useless : 11614
L2C-Avg_miss_latency : 107.586
L2C-Morteza_fill_l2_prefetches : 192514

LLC TOTAL     ACCESS:     137101  HIT:     107979  MISS:      29122
LLC LOAD      ACCESS:       5874  HIT:       3697  MISS:       2177
LLC RFO       ACCESS:      12066  HIT:        450  MISS:      11616
LLC PREFETCH  ACCESS:     105546  HIT:      90290  MISS:      15256
LLC WRITEBACK ACCESS:      13615  HIT:      13542  MISS:         73
LLC PREFETCH  REQUESTED:          0  ISSUED:          0  USEFUL:       1617  USELESS:      13801
LLC AVERAGE MISS LATENCY: 165.203 cycles
LLC

SHEET
LLC-total_access : 137101
LLC-total_hit : 107979
LLC-total_miss : 29122
LLC-load_access : 5874
LLC-load_hit : 3697
LLC-load_miss : 2177
LLC-rfo_access : 12066
LLC-rfo_hit : 450
LLC-rfo_miss : 11616
LLC-prefetch_access : 105546
LLC-prefetch_hit : 90290
LLC-prefetch_miss : 15256
LLC-writeback_access : 13615
LLC-writeback_hit : 13542
LLC-writeback_miss : 73
LLC-prefetch_requested : 0
LLC-prefetch_issued : 0
LLC-prefetch_useful : 1617
LLC-prefetch_useless : 13801
LLC-Avg_miss_latency : 165.203
LLC-Morteza_fill_l2_prefetches : 75689

Major fault: 0 Minor fault: 1284



Printing Logs
morteza: start

SHEET
history_access_cntr : 707487
index_access_cntr : 271078
sab_access_cntr : 8750261
compactor_access_cntr : 8757153

morteza: end
CPU 0 L1D next line prefetcher final stats

DRAM Statistics
 CHANNEL 0
 RQ ROW_BUFFER_HIT:       8887  ROW_BUFFER_MISS:      20162
 DBUS_CONGESTED:      12446
 WQ ROW_BUFFER_HIT:       2780  ROW_BUFFER_MISS:      10087  FULL:          0

 AVG_CONGESTED_CYCLE: 6

CPU 0 Branch Prediction Accuracy: 97.1633% MPKI: 1.73704 Average ROB Occupancy at Mispredict: 36.0451

Branch types
NOT_BRANCH: 46937921 93.8758%
BRANCH_DIRECT_JUMP: 170816 0.341632%
BRANCH_INDIRECT: 0 0%
BRANCH_CONDITIONAL: 2532774 5.06555%
BRANCH_DIRECT_CALL: 114227 0.228454%
BRANCH_INDIRECT_CALL: 64863 0.129726%
BRANCH_RETURN: 179089 0.358178%
BRANCH_OTHER: 0 0%

