Initialize SIGNATURE TABLE
ST_SET: 1
ST_WAY: 256
ST_TAG_BIT: 16
ST_TAG_MASK: ffff

Initialize PATTERN TABLE
PT_SET: 512
PT_WAY: 4
SIG_DELTA_BIT: 7
C_SIG_BIT: 4
C_DELTA_BIT: 4

Initialize PREFETCH FILTER
FILTER_SET: 1024

*** ChampSim Multicore Out-of-Order Simulator ***

Warmup Instructions: 50000000
Simulation Instructions: 50000000
Number of CPUs: 1
LLC sets: 2048
LLC ways: 16
Off-chip DRAM Size: 4096 MB Channels: 1 Width: 64-bit Data Rate: 3200 MT/s

CPU 0 runs /home/mbaradaran/ChampSim/dpc3_traces/spec_perlbench_001.champsimtrace.xz
CPU 0 L1D next line prefetcher
Heartbeat CPU 0 instructions: 10000000 cycles: 3277025 heartbeat IPC: 3.05155 cumulative IPC: 3.05155 (Simulation time: 0 hr 1 min 12 sec) 
Heartbeat CPU 0 instructions: 20000000 cycles: 6543582 heartbeat IPC: 3.06133 cumulative IPC: 3.05643 (Simulation time: 0 hr 2 min 27 sec) 
Heartbeat CPU 0 instructions: 30000002 cycles: 9862788 heartbeat IPC: 3.01277 cumulative IPC: 3.04174 (Simulation time: 0 hr 3 min 42 sec) 
Heartbeat CPU 0 instructions: 40000002 cycles: 13118935 heartbeat IPC: 3.07111 cumulative IPC: 3.04903 (Simulation time: 0 hr 4 min 47 sec) 
Heartbeat CPU 0 instructions: 50000001 cycles: 16393169 heartbeat IPC: 3.05415 cumulative IPC: 3.05005 (Simulation time: 0 hr 5 min 51 sec) 

Warmup complete CPU 0 instructions: 50000001 cycles: 16393169 (Simulation time: 0 hr 5 min 51 sec) 

Heartbeat CPU 0 instructions: 60000001 cycles: 25000693 heartbeat IPC: 1.16177 cumulative IPC: 1.16177 (Simulation time: 0 hr 6 min 50 sec) 
Heartbeat CPU 0 instructions: 70000000 cycles: 33487713 heartbeat IPC: 1.17827 cumulative IPC: 1.16996 (Simulation time: 0 hr 7 min 53 sec) 
Heartbeat CPU 0 instructions: 80000000 cycles: 42079841 heartbeat IPC: 1.16386 cumulative IPC: 1.16792 (Simulation time: 0 hr 8 min 52 sec) 
Heartbeat CPU 0 instructions: 90000000 cycles: 47973405 heartbeat IPC: 1.69677 cumulative IPC: 1.26661 (Simulation time: 0 hr 9 min 39 sec) 
Heartbeat CPU 0 instructions: 100000002 cycles: 53991535 heartbeat IPC: 1.66165 cumulative IPC: 1.32985 (Simulation time: 0 hr 10 min 25 sec) 
Finished CPU 0 instructions: 50000001 cycles: 37598366 cumulative IPC: 1.32984 (Simulation time: 0 hr 10 min 25 sec) 

ChampSim completed all CPUs

Region of Interest Statistics

CPU 0 cumulative IPC: 1.32984 instructions: 50000001 cycles: 37598366

SHEET
IPC : 1.32984

L1D TOTAL     ACCESS:   20932294  HIT:   20517170  MISS:     415124
L1D LOAD      ACCESS:    7292309  HIT:    7078534  MISS:     213775
L1D RFO       ACCESS:    6545938  HIT:    6527461  MISS:      18477
L1D PREFETCH  ACCESS:    7094047  HIT:    6911175  MISS:     182872
L1D WRITEBACK ACCESS:          0  HIT:          0  MISS:          0
L1D PREFETCH  REQUESTED:    7308582  ISSUED:    7194736  USEFUL:      55191  USELESS:     127677
L1D AVERAGE MISS LATENCY: 58.1597 cycles
L1D

SHEET
L1D-total_access : 20932294
L1D-total_hit : 20517170
L1D-total_miss : 415124
L1D-load_access : 7292309
L1D-load_hit : 7078534
L1D-load_miss : 213775
L1D-rfo_access : 6545938
L1D-rfo_hit : 6527461
L1D-rfo_miss : 18477
L1D-prefetch_access : 7094047
L1D-prefetch_hit : 6911175
L1D-prefetch_miss : 182872
L1D-writeback_access : 0
L1D-writeback_hit : 0
L1D-writeback_miss : 0
L1D-prefetch_requested : 7308582
L1D-prefetch_issued : 7194736
L1D-prefetch_useful : 55191
L1D-prefetch_useless : 127677
L1D-Avg_miss_latency : 58.1597
L1D-Morteza_fill_l2_prefetches : 0

L1I TOTAL     ACCESS:   17262531  HIT:   15665624  MISS:    1596907
L1I LOAD      ACCESS:    9195508  HIT:    8928717  MISS:     266791
L1I RFO       ACCESS:          0  HIT:          0  MISS:          0
L1I PREFETCH  ACCESS:    8067023  HIT:    6736907  MISS:    1330116
L1I WRITEBACK ACCESS:          0  HIT:          0  MISS:          0
L1I PREFETCH  REQUESTED:    8177528  ISSUED:    8175825  USEFUL:     678467  USELESS:     651607
L1I AVERAGE MISS LATENCY: 15.1143 cycles
L1I

SHEET
L1I-total_access : 17262531
L1I-total_hit : 15665624
L1I-total_miss : 1596907
L1I-load_access : 9195508
L1I-load_hit : 8928717
L1I-load_miss : 266791
L1I-rfo_access : 0
L1I-rfo_hit : 0
L1I-rfo_miss : 0
L1I-prefetch_access : 8067023
L1I-prefetch_hit : 6736907
L1I-prefetch_miss : 1330116
L1I-writeback_access : 0
L1I-writeback_hit : 0
L1I-writeback_miss : 0
L1I-prefetch_requested : 8177528
L1I-prefetch_issued : 8175825
L1I-prefetch_useful : 678467
L1I-prefetch_useless : 651607
L1I-Avg_miss_latency : 15.1143
L1I-Morteza_fill_l2_prefetches : 0

L2C TOTAL     ACCESS:    2859928  HIT:    2694803  MISS:     165125
L2C LOAD      ACCESS:     442032  HIT:     356694  MISS:      85338
L2C RFO       ACCESS:      18237  HIT:      12820  MISS:       5417
L2C PREFETCH  ACCESS:    2320691  HIT:    2246662  MISS:      74029
L2C WRITEBACK ACCESS:      78968  HIT:      78627  MISS:        341
L2C PREFETCH  REQUESTED:    1824149  ISSUED:    1824070  USEFUL:       6616  USELESS:      67484
L2C AVERAGE MISS LATENCY: 118.898 cycles
L2C

SHEET
L2C-total_access : 2859928
L2C-total_hit : 2694803
L2C-total_miss : 165125
L2C-load_access : 442032
L2C-load_hit : 356694
L2C-load_miss : 85338
L2C-rfo_access : 18237
L2C-rfo_hit : 12820
L2C-rfo_miss : 5417
L2C-prefetch_access : 2320691
L2C-prefetch_hit : 2246662
L2C-prefetch_miss : 74029
L2C-writeback_access : 78968
L2C-writeback_hit : 78627
L2C-writeback_miss : 341
L2C-prefetch_requested : 1824149
L2C-prefetch_issued : 1824070
L2C-prefetch_useful : 6616
L2C-prefetch_useless : 67484
L2C-Avg_miss_latency : 118.898
L2C-Morteza_fill_l2_prefetches : 775057

LLC TOTAL     ACCESS:     491157  HIT:     345343  MISS:     145814
LLC LOAD      ACCESS:      85309  HIT:      34595  MISS:      50714
LLC RFO       ACCESS:       5417  HIT:       2411  MISS:       3006
LLC PREFETCH  ACCESS:     374878  HIT:     283274  MISS:      91604
LLC WRITEBACK ACCESS:      25553  HIT:      25063  MISS:        490
LLC PREFETCH  REQUESTED:          0  ISSUED:          0  USEFUL:      15681  USELESS:      75798
LLC AVERAGE MISS LATENCY: 158.743 cycles
LLC

SHEET
LLC-total_access : 491157
LLC-total_hit : 345343
LLC-total_miss : 145814
LLC-load_access : 85309
LLC-load_hit : 34595
LLC-load_miss : 50714
LLC-rfo_access : 5417
LLC-rfo_hit : 2411
LLC-rfo_miss : 3006
LLC-prefetch_access : 374878
LLC-prefetch_hit : 283274
LLC-prefetch_miss : 91604
LLC-writeback_access : 25553
LLC-writeback_hit : 25063
LLC-writeback_miss : 490
LLC-prefetch_requested : 0
LLC-prefetch_issued : 0
LLC-prefetch_useful : 15681
LLC-prefetch_useless : 75798
LLC-Avg_miss_latency : 158.743
LLC-Morteza_fill_l2_prefetches : 249858

Major fault: 0 Minor fault: 6364



Printing Logs
morteza: start

SHEET
history_access_cntr : 6744559
index_access_cntr : 1924895
sab_access_cntr : 18853155
compactor_access_cntr : 15658380

morteza: end
CPU 0 L1D next line prefetcher final stats

DRAM Statistics
 CHANNEL 0
 RQ ROW_BUFFER_HIT:      33178  ROW_BUFFER_MISS:     112144
 DBUS_CONGESTED:      57380
 WQ ROW_BUFFER_HIT:       4311  ROW_BUFFER_MISS:      13093  FULL:          0

 AVG_CONGESTED_CYCLE: 4

CPU 0 Branch Prediction Accuracy: 98.7418% MPKI: 2.47758 Average ROB Occupancy at Mispredict: 71.8729

Branch types
NOT_BRANCH: 40154077 80.3082%
BRANCH_DIRECT_JUMP: 817092 1.63418%
BRANCH_INDIRECT: 303787 0.607574%
BRANCH_CONDITIONAL: 7492100 14.9842%
BRANCH_DIRECT_CALL: 471777 0.943554%
BRANCH_INDIRECT_CALL: 144546 0.289092%
BRANCH_RETURN: 616324 1.23265%
BRANCH_OTHER: 0 0%

