Initialize SIGNATURE TABLE
ST_SET: 1
ST_WAY: 256
ST_TAG_BIT: 16
ST_TAG_MASK: ffff

Initialize PATTERN TABLE
PT_SET: 512
PT_WAY: 4
SIG_DELTA_BIT: 7
C_SIG_BIT: 4
C_DELTA_BIT: 4

Initialize PREFETCH FILTER
FILTER_SET: 1024

*** ChampSim Multicore Out-of-Order Simulator ***

Warmup Instructions: 50000000
Simulation Instructions: 50000000
Number of CPUs: 1
LLC sets: 2048
LLC ways: 16
Off-chip DRAM Size: 4096 MB Channels: 1 Width: 64-bit Data Rate: 3200 MT/s

CPU 0 runs /home/mbaradaran/ChampSim/dpc3_traces/spec_gcc_003.champsimtrace.xz
CPU 0 L1D next line prefetcher
Heartbeat CPU 0 instructions: 10000001 cycles: 3483092 heartbeat IPC: 2.87101 cumulative IPC: 2.87101 (Simulation time: 0 hr 1 min 15 sec) 
Heartbeat CPU 0 instructions: 20000000 cycles: 6949650 heartbeat IPC: 2.88471 cumulative IPC: 2.87784 (Simulation time: 0 hr 2 min 22 sec) 
Heartbeat CPU 0 instructions: 30000002 cycles: 10390145 heartbeat IPC: 2.90656 cumulative IPC: 2.88735 (Simulation time: 0 hr 3 min 28 sec) 
Heartbeat CPU 0 instructions: 40000000 cycles: 13857162 heartbeat IPC: 2.88432 cumulative IPC: 2.88659 (Simulation time: 0 hr 4 min 29 sec) 
Heartbeat CPU 0 instructions: 50000001 cycles: 17167016 heartbeat IPC: 3.02128 cumulative IPC: 2.91256 (Simulation time: 0 hr 5 min 29 sec) 

Warmup complete CPU 0 instructions: 50000001 cycles: 17167016 (Simulation time: 0 hr 5 min 29 sec) 

Heartbeat CPU 0 instructions: 60000000 cycles: 57515812 heartbeat IPC: 0.247839 cumulative IPC: 0.247839 (Simulation time: 0 hr 7 min 59 sec) 
Heartbeat CPU 0 instructions: 70000000 cycles: 100780172 heartbeat IPC: 0.231137 cumulative IPC: 0.239197 (Simulation time: 0 hr 10 min 36 sec) 
Heartbeat CPU 0 instructions: 80000003 cycles: 144845104 heartbeat IPC: 0.226938 cumulative IPC: 0.234966 (Simulation time: 0 hr 13 min 11 sec) 
Heartbeat CPU 0 instructions: 90000002 cycles: 182125964 heartbeat IPC: 0.268234 cumulative IPC: 0.242485 (Simulation time: 0 hr 15 min 27 sec) 
Heartbeat CPU 0 instructions: 100000001 cycles: 228670372 heartbeat IPC: 0.214849 cumulative IPC: 0.236403 (Simulation time: 0 hr 18 min 8 sec) 
Finished CPU 0 instructions: 50000000 cycles: 211503356 cumulative IPC: 0.236403 (Simulation time: 0 hr 18 min 8 sec) 

ChampSim completed all CPUs

Region of Interest Statistics

CPU 0 cumulative IPC: 0.236403 instructions: 50000000 cycles: 211503356

SHEET
IPC : 0.236403

L1D TOTAL     ACCESS:   16973509  HIT:   11249132  MISS:    5724377
L1D LOAD      ACCESS:    4624042  HIT:    4240911  MISS:     383131
L1D RFO       ACCESS:    8214157  HIT:    3162634  MISS:    5051523
L1D PREFETCH  ACCESS:    4135310  HIT:    3845587  MISS:     289723
L1D WRITEBACK ACCESS:          0  HIT:          0  MISS:          0
L1D PREFETCH  REQUESTED:    4641667  ISSUED:    4581999  USEFUL:     152209  USELESS:     137694
L1D AVERAGE MISS LATENCY: 504.522 cycles
L1D

SHEET
L1D-total_access : 16973509
L1D-total_hit : 11249132
L1D-total_miss : 5724377
L1D-load_access : 4624042
L1D-load_hit : 4240911
L1D-load_miss : 383131
L1D-rfo_access : 8214157
L1D-rfo_hit : 3162634
L1D-rfo_miss : 5051523
L1D-prefetch_access : 4135310
L1D-prefetch_hit : 3845587
L1D-prefetch_miss : 289723
L1D-writeback_access : 0
L1D-writeback_hit : 0
L1D-writeback_miss : 0
L1D-prefetch_requested : 4641667
L1D-prefetch_issued : 4581999
L1D-prefetch_useful : 152209
L1D-prefetch_useless : 137694
L1D-Avg_miss_latency : 504.522
L1D-Morteza_fill_l2_prefetches : 0

L1I TOTAL     ACCESS:   15013246  HIT:   13573903  MISS:    1439343
L1I LOAD      ACCESS:   11302842  HIT:   11074025  MISS:     228817
L1I RFO       ACCESS:          0  HIT:          0  MISS:          0
L1I PREFETCH  ACCESS:    3710404  HIT:    2499878  MISS:    1210526
L1I WRITEBACK ACCESS:          0  HIT:          0  MISS:          0
L1I PREFETCH  REQUESTED:    3949980  ISSUED:    3886852  USEFUL:     751759  USELESS:     458778
L1I AVERAGE MISS LATENCY: 46.6082 cycles
L1I

SHEET
L1I-total_access : 15013246
L1I-total_hit : 13573903
L1I-total_miss : 1439343
L1I-load_access : 11302842
L1I-load_hit : 11074025
L1I-load_miss : 228817
L1I-rfo_access : 0
L1I-rfo_hit : 0
L1I-rfo_miss : 0
L1I-prefetch_access : 3710404
L1I-prefetch_hit : 2499878
L1I-prefetch_miss : 1210526
L1I-writeback_access : 0
L1I-writeback_hit : 0
L1I-writeback_miss : 0
L1I-prefetch_requested : 3949980
L1I-prefetch_issued : 3886852
L1I-prefetch_useful : 751759
L1I-prefetch_useless : 458778
L1I-Avg_miss_latency : 46.6082
L1I-Morteza_fill_l2_prefetches : 0

L2C TOTAL     ACCESS:   12768064  HIT:    6732194  MISS:    6035870
L2C LOAD      ACCESS:     367963  HIT:     178969  MISS:     188994
L2C RFO       ACCESS:    5049811  HIT:       6458  MISS:    5043353
L2C PREFETCH  ACCESS:    2192412  HIT:    1389255  MISS:     803157
L2C WRITEBACK ACCESS:    5157878  HIT:    5157512  MISS:        366
L2C PREFETCH  REQUESTED:    2383464  ISSUED:    2383293  USEFUL:      72188  USELESS:     727902
L2C AVERAGE MISS LATENCY: 476.108 cycles
L2C

SHEET
L2C-total_access : 12768064
L2C-total_hit : 6732194
L2C-total_miss : 6035870
L2C-load_access : 367963
L2C-load_hit : 178969
L2C-load_miss : 188994
L2C-rfo_access : 5049811
L2C-rfo_hit : 6458
L2C-rfo_miss : 5043353
L2C-prefetch_access : 2192412
L2C-prefetch_hit : 1389255
L2C-prefetch_miss : 803157
L2C-writeback_access : 5157878
L2C-writeback_hit : 5157512
L2C-writeback_miss : 366
L2C-prefetch_requested : 2383464
L2C-prefetch_issued : 2383293
L2C-prefetch_useful : 72188
L2C-prefetch_useless : 727902
L2C-Avg_miss_latency : 476.108
L2C-Morteza_fill_l2_prefetches : 407195

LLC TOTAL     ACCESS:   12033140  HIT:    7294783  MISS:    4738357
LLC LOAD      ACCESS:     188947  HIT:     141649  MISS:      47298
LLC RFO       ACCESS:    5043354  HIT:     618283  MISS:    4425071
LLC PREFETCH  ACCESS:    1666896  HIT:    1400908  MISS:     265988
LLC WRITEBACK ACCESS:    5133943  HIT:    5133943  MISS:          0
LLC PREFETCH  REQUESTED:          0  ISSUED:          0  USEFUL:      16706  USELESS:     248925
LLC AVERAGE MISS LATENCY: 575.966 cycles
LLC

SHEET
LLC-total_access : 12033140
LLC-total_hit : 7294783
LLC-total_miss : 4738357
LLC-load_access : 188947
LLC-load_hit : 141649
LLC-load_miss : 47298
LLC-rfo_access : 5043354
LLC-rfo_hit : 618283
LLC-rfo_miss : 4425071
LLC-prefetch_access : 1666896
LLC-prefetch_hit : 1400908
LLC-prefetch_miss : 265988
LLC-writeback_access : 5133944
LLC-writeback_hit : 5133944
LLC-writeback_miss : 0
LLC-prefetch_requested : 0
LLC-prefetch_issued : 0
LLC-prefetch_useful : 16706
LLC-prefetch_useless : 248925
LLC-Avg_miss_latency : 575.966
LLC-Morteza_fill_l2_prefetches : 859517

Major fault: 0 Minor fault: 2817



Printing Logs
morteza: start

SHEET
history_access_cntr : 3485554
index_access_cntr : 1260715
sab_access_cntr : 11797222
compactor_access_cntr : 10985675

morteza: end
CPU 0 L1D next line prefetcher final stats

DRAM Statistics
 CHANNEL 0
 RQ ROW_BUFFER_HIT:    1432297  ROW_BUFFER_MISS:    3306013
 DBUS_CONGESTED:    8225794
 WQ ROW_BUFFER_HIT:    1190143  ROW_BUFFER_MISS:    3264093  FULL:          0

 AVG_CONGESTED_CYCLE: 6

CPU 0 Branch Prediction Accuracy: 99.665% MPKI: 0.78342 Average ROB Occupancy at Mispredict: 108.499

Branch types
NOT_BRANCH: 38305861 76.6117%
BRANCH_DIRECT_JUMP: 384281 0.768562%
BRANCH_INDIRECT: 71949 0.143898%
BRANCH_CONDITIONAL: 9879826 19.7597%
BRANCH_DIRECT_CALL: 650586 1.30117%
BRANCH_INDIRECT_CALL: 28456 0.056912%
BRANCH_RETURN: 679046 1.35809%
BRANCH_OTHER: 0 0%

