Initialize SIGNATURE TABLE
ST_SET: 1
ST_WAY: 256
ST_TAG_BIT: 16
ST_TAG_MASK: ffff

Initialize PATTERN TABLE
PT_SET: 512
PT_WAY: 4
SIG_DELTA_BIT: 7
C_SIG_BIT: 4
C_DELTA_BIT: 4

Initialize PREFETCH FILTER
FILTER_SET: 1024

*** ChampSim Multicore Out-of-Order Simulator ***

Warmup Instructions: 50000000
Simulation Instructions: 50000000
Number of CPUs: 1
LLC sets: 2048
LLC ways: 16
Off-chip DRAM Size: 4096 MB Channels: 1 Width: 64-bit Data Rate: 3200 MT/s

CPU 0 runs /home/mbaradaran/ChampSim/dpc3_traces/client_007.champsimtrace.xz
CPU 0 L1I next line prefetcher
CPU 0 L1D next line prefetcher
Heartbeat CPU 0 instructions: 10000001 cycles: 3642347 heartbeat IPC: 2.74548 cumulative IPC: 2.74548 (Simulation time: 0 hr 1 min 28 sec) 
Heartbeat CPU 0 instructions: 20000003 cycles: 7034344 heartbeat IPC: 2.94812 cumulative IPC: 2.84319 (Simulation time: 0 hr 2 min 57 sec) 
Heartbeat CPU 0 instructions: 30000000 cycles: 10905706 heartbeat IPC: 2.58307 cumulative IPC: 2.75085 (Simulation time: 0 hr 4 min 50 sec) 
Heartbeat CPU 0 instructions: 40000003 cycles: 15065772 heartbeat IPC: 2.40381 cumulative IPC: 2.65503 (Simulation time: 0 hr 6 min 40 sec) 
Heartbeat CPU 0 instructions: 50000002 cycles: 18470753 heartbeat IPC: 2.93687 cumulative IPC: 2.70698 (Simulation time: 0 hr 8 min 17 sec) 

Warmup complete CPU 0 instructions: 50000002 cycles: 18470753 (Simulation time: 0 hr 8 min 17 sec) 

Heartbeat CPU 0 instructions: 60000003 cycles: 25453403 heartbeat IPC: 1.43212 cumulative IPC: 1.43212 (Simulation time: 0 hr 10 min 1 sec) 
Heartbeat CPU 0 instructions: 70000003 cycles: 34336728 heartbeat IPC: 1.1257 cumulative IPC: 1.26056 (Simulation time: 0 hr 11 min 50 sec) 
Heartbeat CPU 0 instructions: 80000002 cycles: 39701507 heartbeat IPC: 1.86401 cumulative IPC: 1.41304 (Simulation time: 0 hr 13 min 12 sec) 
Heartbeat CPU 0 instructions: 90000002 cycles: 47451106 heartbeat IPC: 1.29039 cumulative IPC: 1.38025 (Simulation time: 0 hr 14 min 56 sec) 
Heartbeat CPU 0 instructions: 100000002 cycles: 56403443 heartbeat IPC: 1.11703 cumulative IPC: 1.31812 (Simulation time: 0 hr 16 min 34 sec) 
Finished CPU 0 instructions: 50000000 cycles: 37932690 cumulative IPC: 1.31812 (Simulation time: 0 hr 16 min 34 sec) 

ChampSim completed all CPUs

Region of Interest Statistics

CPU 0 cumulative IPC: 1.31812 instructions: 50000000 cycles: 37932690

SHEET
IPC : 1.31812

L1D TOTAL     ACCESS:   21265974  HIT:   20096698  MISS:    1169276
L1D LOAD      ACCESS:    8401381  HIT:    7862845  MISS:     538536
L1D RFO       ACCESS:    4871356  HIT:    4780311  MISS:      91045
L1D PREFETCH  ACCESS:    7993237  HIT:    7453542  MISS:     539695
L1D WRITEBACK ACCESS:          0  HIT:          0  MISS:          0
L1D PREFETCH  REQUESTED:    8453555  ISSUED:    8210550  USEFUL:     158973  USELESS:     380738
L1D AVERAGE MISS LATENCY: 34.3168 cycles
L1D

SHEET
L1D-total_access : 21265974
L1D-total_hit : 20096698
L1D-total_miss : 1169276
L1D-load_access : 8401381
L1D-load_hit : 7862845
L1D-load_miss : 538536
L1D-rfo_access : 4871356
L1D-rfo_hit : 4780311
L1D-rfo_miss : 91045
L1D-prefetch_access : 7993237
L1D-prefetch_hit : 7453542
L1D-prefetch_miss : 539695
L1D-writeback_access : 0
L1D-writeback_hit : 0
L1D-writeback_miss : 0
L1D-prefetch_requested : 8453555
L1D-prefetch_issued : 8210550
L1D-prefetch_useful : 158973
L1D-prefetch_useless : 380738
L1D-Avg_miss_latency : 34.3168

L1I TOTAL     ACCESS:   10595399  HIT:    9401923  MISS:    1193476
L1I LOAD      ACCESS:    9114425  HIT:    9017597  MISS:      96828
L1I RFO       ACCESS:          0  HIT:          0  MISS:          0
L1I PREFETCH  ACCESS:    1480974  HIT:     384326  MISS:    1096648
L1I WRITEBACK ACCESS:          0  HIT:          0  MISS:          0
L1I PREFETCH  REQUESTED:    1534558  ISSUED:    1534558  USEFUL:     794706  USELESS:     301939
L1I AVERAGE MISS LATENCY: 16.5285 cycles
L1I

SHEET
L1I-total_access : 10595399
L1I-total_hit : 9401923
L1I-total_miss : 1193476
L1I-load_access : 9114425
L1I-load_hit : 9017597
L1I-load_miss : 96828
L1I-rfo_access : 0
L1I-rfo_hit : 0
L1I-rfo_miss : 0
L1I-prefetch_access : 1480974
L1I-prefetch_hit : 384326
L1I-prefetch_miss : 1096648
L1I-writeback_access : 0
L1I-writeback_hit : 0
L1I-writeback_miss : 0
L1I-prefetch_requested : 1534558
L1I-prefetch_issued : 1534558
L1I-prefetch_useful : 794706
L1I-prefetch_useless : 301939
L1I-Avg_miss_latency : 16.5285

L2C TOTAL     ACCESS:    3456444  HIT:    3242761  MISS:     213683
L2C LOAD      ACCESS:     593446  HIT:     520923  MISS:      72523
L2C RFO       ACCESS:      89502  HIT:      47867  MISS:      41635
L2C PREFETCH  ACCESS:    2445812  HIT:    2346496  MISS:      99316
L2C WRITEBACK ACCESS:     327684  HIT:     327475  MISS:        209
L2C PREFETCH  REQUESTED:    2788898  ISSUED:    2784921  USEFUL:       9526  USELESS:      90006
L2C AVERAGE MISS LATENCY: 122.324 cycles
L2C

SHEET
L2C-total_access : 3456444
L2C-total_hit : 3242761
L2C-total_miss : 213683
L2C-load_access : 593446
L2C-load_hit : 520923
L2C-load_miss : 72523
L2C-rfo_access : 89502
L2C-rfo_hit : 47867
L2C-rfo_miss : 41635
L2C-prefetch_access : 2445812
L2C-prefetch_hit : 2346496
L2C-prefetch_miss : 99316
L2C-writeback_access : 327684
L2C-writeback_hit : 327475
L2C-writeback_miss : 209
L2C-prefetch_requested : 2788898
L2C-prefetch_issued : 2784921
L2C-prefetch_useful : 9526
L2C-prefetch_useless : 90006
L2C-Avg_miss_latency : 122.324

LLC TOTAL     ACCESS:     907591  HIT:     735878  MISS:     171713
LLC LOAD      ACCESS:      72415  HIT:      36828  MISS:      35587
LLC RFO       ACCESS:      41635  HIT:       7324  MISS:      34311
LLC PREFETCH  ACCESS:     718938  HIT:     617410  MISS:     101528
LLC WRITEBACK ACCESS:      74603  HIT:      74316  MISS:        287
LLC PREFETCH  REQUESTED:          0  ISSUED:          0  USEFUL:      18766  USELESS:      83894
LLC AVERAGE MISS LATENCY: 180.563 cycles
LLC

SHEET
LLC-total_access : 907591
LLC-total_hit : 735878
LLC-total_miss : 171713
LLC-load_access : 72415
LLC-load_hit : 36828
LLC-load_miss : 35587
LLC-rfo_access : 41635
LLC-rfo_hit : 7324
LLC-rfo_miss : 34311
LLC-prefetch_access : 718938
LLC-prefetch_hit : 617410
LLC-prefetch_miss : 101528
LLC-writeback_access : 74603
LLC-writeback_hit : 74316
LLC-writeback_miss : 287
LLC-prefetch_requested : 0
LLC-prefetch_issued : 0
LLC-prefetch_useful : 18766
LLC-prefetch_useless : 83894
LLC-Avg_miss_latency : 180.563

Major fault: 0 Minor fault: 4419
I-Shadow cache 408 bytes
Touched + WorthPF tables 3072 bytes 
MMA filter 174 bytes 
FNL filter 272 bytes 
TOTAL PREFETCHER STORAGE SIZE: 13014 bytes
CPU 0 L1I next line prefetcher final stats

 morteza stats start 

SHEET
fnlfilter_access_cntr : 9440799
iShadow_access_cntr : 40546088
missahead_access_cntr : 1739322
mmafilter_access_cntr : 3668378
touched_access_cntr : 6794724
worthpf_access_cntr : 9391354


morteza stats endCPU 0 L1D next line prefetcher final stats

DRAM Statistics
 CHANNEL 0
 RQ ROW_BUFFER_HIT:      36699  ROW_BUFFER_MISS:     134707
 DBUS_CONGESTED:      97140
 WQ ROW_BUFFER_HIT:      12583  ROW_BUFFER_MISS:      44890  FULL:          0

 AVG_CONGESTED_CYCLE: 5

CPU 0 Branch Prediction Accuracy: 98.8607% MPKI: 1.8623 Average ROB Occupancy at Mispredict: 111.945

Branch types
NOT_BRANCH: 41826773 83.6535%
BRANCH_DIRECT_JUMP: 735330 1.47066%
BRANCH_INDIRECT: 269194 0.538388%
BRANCH_CONDITIONAL: 5957947 11.9159%
BRANCH_DIRECT_CALL: 368758 0.737516%
BRANCH_INDIRECT_CALL: 226975 0.45395%
BRANCH_RETURN: 614696 1.22939%
BRANCH_OTHER: 0 0%

