Initialize SIGNATURE TABLE
ST_SET: 1
ST_WAY: 256
ST_TAG_BIT: 16
ST_TAG_MASK: ffff

Initialize PATTERN TABLE
PT_SET: 512
PT_WAY: 4
SIG_DELTA_BIT: 7
C_SIG_BIT: 4
C_DELTA_BIT: 4

Initialize PREFETCH FILTER
FILTER_SET: 1024

*** ChampSim Multicore Out-of-Order Simulator ***

Warmup Instructions: 50000000
Simulation Instructions: 50000000
Number of CPUs: 1
LLC sets: 2048
LLC ways: 16
Off-chip DRAM Size: 4096 MB Channels: 1 Width: 64-bit Data Rate: 3200 MT/s

CPU 0 runs /home/mbaradaran/ChampSim/dpc3_traces/server_036.champsimtrace.xz
CPU 0 L1I next line prefetcher
CPU 0 L1D next line prefetcher
Heartbeat CPU 0 instructions: 10000000 cycles: 3458934 heartbeat IPC: 2.89106 cumulative IPC: 2.89106 (Simulation time: 0 hr 1 min 46 sec) 
Heartbeat CPU 0 instructions: 20000000 cycles: 6924724 heartbeat IPC: 2.88534 cumulative IPC: 2.8882 (Simulation time: 0 hr 3 min 36 sec) 
Heartbeat CPU 0 instructions: 30000003 cycles: 10432888 heartbeat IPC: 2.85049 cumulative IPC: 2.87552 (Simulation time: 0 hr 5 min 16 sec) 
Heartbeat CPU 0 instructions: 40000000 cycles: 13895393 heartbeat IPC: 2.88808 cumulative IPC: 2.87865 (Simulation time: 0 hr 7 min 3 sec) 
Heartbeat CPU 0 instructions: 50000002 cycles: 17357099 heartbeat IPC: 2.88875 cumulative IPC: 2.88067 (Simulation time: 0 hr 8 min 54 sec) 

Warmup complete CPU 0 instructions: 50000002 cycles: 17357099 (Simulation time: 0 hr 8 min 54 sec) 

Heartbeat CPU 0 instructions: 60000000 cycles: 22976558 heartbeat IPC: 1.77953 cumulative IPC: 1.77953 (Simulation time: 0 hr 10 min 37 sec) 
Heartbeat CPU 0 instructions: 70000001 cycles: 28540570 heartbeat IPC: 1.79726 cumulative IPC: 1.78835 (Simulation time: 0 hr 12 min 15 sec) 
Heartbeat CPU 0 instructions: 80000001 cycles: 34138472 heartbeat IPC: 1.78638 cumulative IPC: 1.7877 (Simulation time: 0 hr 13 min 54 sec) 
Heartbeat CPU 0 instructions: 90000002 cycles: 39701701 heartbeat IPC: 1.79752 cumulative IPC: 1.79014 (Simulation time: 0 hr 15 min 31 sec) 
Heartbeat CPU 0 instructions: 100000001 cycles: 45260422 heartbeat IPC: 1.79897 cumulative IPC: 1.7919 (Simulation time: 0 hr 17 min 14 sec) 
Finished CPU 0 instructions: 50000003 cycles: 27903324 cumulative IPC: 1.7919 (Simulation time: 0 hr 17 min 14 sec) 

ChampSim completed all CPUs

Region of Interest Statistics

CPU 0 cumulative IPC: 1.7919 instructions: 50000003 cycles: 27903324

SHEET
IPC : 1.7919

L1D TOTAL     ACCESS:   20548449  HIT:   20488338  MISS:      60111
L1D LOAD      ACCESS:    6699269  HIT:    6664495  MISS:      34774
L1D RFO       ACCESS:    7345741  HIT:    7338528  MISS:       7213
L1D PREFETCH  ACCESS:    6503439  HIT:    6485315  MISS:      18124
L1D WRITEBACK ACCESS:          0  HIT:          0  MISS:          0
L1D PREFETCH  REQUESTED:    6700229  ISSUED:    6536924  USEFUL:       5466  USELESS:      12659
L1D AVERAGE MISS LATENCY: 17.6482 cycles
L1D

SHEET
L1D-total_access : 20548449
L1D-total_hit : 20488338
L1D-total_miss : 60111
L1D-load_access : 6699269
L1D-load_hit : 6664495
L1D-load_miss : 34774
L1D-rfo_access : 7345741
L1D-rfo_hit : 7338528
L1D-rfo_miss : 7213
L1D-prefetch_access : 6503439
L1D-prefetch_hit : 6485315
L1D-prefetch_miss : 18124
L1D-writeback_access : 0
L1D-writeback_hit : 0
L1D-writeback_miss : 0
L1D-prefetch_requested : 6700229
L1D-prefetch_issued : 6536924
L1D-prefetch_useful : 5466
L1D-prefetch_useless : 12659
L1D-Avg_miss_latency : 17.6482

L1I TOTAL     ACCESS:   15575647  HIT:   11040715  MISS:    4534932
L1I LOAD      ACCESS:    8978566  HIT:    8916522  MISS:      62044
L1I RFO       ACCESS:          0  HIT:          0  MISS:          0
L1I PREFETCH  ACCESS:    6597081  HIT:    2124193  MISS:    4472888
L1I WRITEBACK ACCESS:          0  HIT:          0  MISS:          0
L1I PREFETCH  REQUESTED:    6768399  ISSUED:    6768399  USEFUL:    3825850  USELESS:     647015
L1I AVERAGE MISS LATENCY: 14.6509 cycles
L1I

SHEET
L1I-total_access : 15575647
L1I-total_hit : 11040715
L1I-total_miss : 4534932
L1I-load_access : 8978566
L1I-load_hit : 8916522
L1I-load_miss : 62044
L1I-rfo_access : 0
L1I-rfo_hit : 0
L1I-rfo_miss : 0
L1I-prefetch_access : 6597081
L1I-prefetch_hit : 2124193
L1I-prefetch_miss : 4472888
L1I-writeback_access : 0
L1I-writeback_hit : 0
L1I-writeback_miss : 0
L1I-prefetch_requested : 6768399
L1I-prefetch_issued : 6768399
L1I-prefetch_useful : 3825850
L1I-prefetch_useless : 647015
L1I-Avg_miss_latency : 14.6509

L2C TOTAL     ACCESS:    6570109  HIT:    6567729  MISS:       2380
L2C LOAD      ACCESS:      67222  HIT:      66713  MISS:        509
L2C RFO       ACCESS:       7205  HIT:       7145  MISS:         60
L2C PREFETCH  ACCESS:    6480065  HIT:    6478279  MISS:       1786
L2C WRITEBACK ACCESS:      15617  HIT:      15592  MISS:         25
L2C PREFETCH  REQUESTED:    6287558  ISSUED:    6286528  USEFUL:        216  USELESS:       1153
L2C AVERAGE MISS LATENCY: 149.287 cycles
L2C

SHEET
L2C-total_access : 6570109
L2C-total_hit : 6567729
L2C-total_miss : 2380
L2C-load_access : 67222
L2C-load_hit : 66713
L2C-load_miss : 509
L2C-rfo_access : 7205
L2C-rfo_hit : 7145
L2C-rfo_miss : 60
L2C-prefetch_access : 6480065
L2C-prefetch_hit : 6478279
L2C-prefetch_miss : 1786
L2C-writeback_access : 15617
L2C-writeback_hit : 15592
L2C-writeback_miss : 25
L2C-prefetch_requested : 6287558
L2C-prefetch_issued : 6286528
L2C-prefetch_useful : 216
L2C-prefetch_useless : 1153
L2C-Avg_miss_latency : 149.287

LLC TOTAL     ACCESS:     639795  HIT:     636779  MISS:       3016
LLC LOAD      ACCESS:        509  HIT:        165  MISS:        344
LLC RFO       ACCESS:         60  HIT:         30  MISS:         30
LLC PREFETCH  ACCESS:     638307  HIT:     635675  MISS:       2632
LLC WRITEBACK ACCESS:        919  HIT:        909  MISS:         10
LLC PREFETCH  REQUESTED:          0  ISSUED:          0  USEFUL:         88  USELESS:        831
LLC AVERAGE MISS LATENCY: 255.558 cycles
LLC

SHEET
LLC-total_access : 639795
LLC-total_hit : 636779
LLC-total_miss : 3016
LLC-load_access : 509
LLC-load_hit : 165
LLC-load_miss : 344
LLC-rfo_access : 60
LLC-rfo_hit : 30
LLC-rfo_miss : 30
LLC-prefetch_access : 638307
LLC-prefetch_hit : 635675
LLC-prefetch_miss : 2632
LLC-writeback_access : 919
LLC-writeback_hit : 909
LLC-writeback_miss : 10
LLC-prefetch_requested : 0
LLC-prefetch_issued : 0
LLC-prefetch_useful : 88
LLC-prefetch_useless : 831
LLC-Avg_miss_latency : 255.558

Major fault: 0 Minor fault: 1932
I-Shadow cache 408 bytes
Touched + WorthPF tables 3072 bytes 
MMA filter 174 bytes 
FNL filter 272 bytes 
TOTAL PREFETCHER STORAGE SIZE: 13014 bytes
CPU 0 L1I next line prefetcher final stats

 morteza stats start 

SHEET
fnlfilter_access_cntr : 38534246
iShadow_access_cntr : 40401214
missahead_access_cntr : 7532525
mmafilter_access_cntr : 16405774
touched_access_cntr : 26348217
worthpf_access_cntr : 36277580


morteza stats endCPU 0 L1D next line prefetcher final stats

DRAM Statistics
 CHANNEL 0
 RQ ROW_BUFFER_HIT:        607  ROW_BUFFER_MISS:       2399
 DBUS_CONGESTED:       1931
 WQ ROW_BUFFER_HIT:        306  ROW_BUFFER_MISS:       1611  FULL:          0

 AVG_CONGESTED_CYCLE: 6

CPU 0 Branch Prediction Accuracy: 99.8717% MPKI: 0.21174 Average ROB Occupancy at Mispredict: 225.066

Branch types
NOT_BRANCH: 41748435 83.4969%
BRANCH_DIRECT_JUMP: 468563 0.937126%
BRANCH_INDIRECT: 0 0%
BRANCH_CONDITIONAL: 5599754 11.1995%
BRANCH_DIRECT_CALL: 885105 1.77021%
BRANCH_INDIRECT_CALL: 206338 0.412676%
BRANCH_RETURN: 1091467 2.18293%
BRANCH_OTHER: 0 0%

