Initialize SIGNATURE TABLE
ST_SET: 1
ST_WAY: 256
ST_TAG_BIT: 16
ST_TAG_MASK: ffff

Initialize PATTERN TABLE
PT_SET: 512
PT_WAY: 4
SIG_DELTA_BIT: 7
C_SIG_BIT: 4
C_DELTA_BIT: 4

Initialize PREFETCH FILTER
FILTER_SET: 1024

*** ChampSim Multicore Out-of-Order Simulator ***

Warmup Instructions: 50000000
Simulation Instructions: 50000000
Number of CPUs: 1
LLC sets: 2048
LLC ways: 16
Off-chip DRAM Size: 4096 MB Channels: 1 Width: 64-bit Data Rate: 3200 MT/s

CPU 0 runs /home/mbaradaran/ChampSim/dpc3_traces/server_020.champsimtrace.xz
CPU 0 L1I next line prefetcher
CPU 0 L1D next line prefetcher
Heartbeat CPU 0 instructions: 10000003 cycles: 3622940 heartbeat IPC: 2.76019 cumulative IPC: 2.76019 (Simulation time: 0 hr 1 min 45 sec) 
Heartbeat CPU 0 instructions: 20000002 cycles: 7249943 heartbeat IPC: 2.7571 cumulative IPC: 2.75864 (Simulation time: 0 hr 3 min 33 sec) 
Heartbeat CPU 0 instructions: 30000001 cycles: 10870773 heartbeat IPC: 2.7618 cumulative IPC: 2.75969 (Simulation time: 0 hr 5 min 21 sec) 
Heartbeat CPU 0 instructions: 40000002 cycles: 14492806 heartbeat IPC: 2.76088 cumulative IPC: 2.75999 (Simulation time: 0 hr 7 min 14 sec) 
Heartbeat CPU 0 instructions: 50000001 cycles: 18127967 heartbeat IPC: 2.75091 cumulative IPC: 2.75817 (Simulation time: 0 hr 9 min 10 sec) 

Warmup complete CPU 0 instructions: 50000001 cycles: 18127967 (Simulation time: 0 hr 9 min 10 sec) 

Heartbeat CPU 0 instructions: 60000003 cycles: 35436612 heartbeat IPC: 0.577746 cumulative IPC: 0.577746 (Simulation time: 0 hr 11 min 50 sec) 
Heartbeat CPU 0 instructions: 70000002 cycles: 52724153 heartbeat IPC: 0.578451 cumulative IPC: 0.578098 (Simulation time: 0 hr 14 min 29 sec) 
Heartbeat CPU 0 instructions: 80000002 cycles: 69955190 heartbeat IPC: 0.580348 cumulative IPC: 0.578846 (Simulation time: 0 hr 17 min 14 sec) 
Heartbeat CPU 0 instructions: 90000001 cycles: 87171694 heartbeat IPC: 0.580838 cumulative IPC: 0.579343 (Simulation time: 0 hr 20 min 0 sec) 
Heartbeat CPU 0 instructions: 100000002 cycles: 104344182 heartbeat IPC: 0.582327 cumulative IPC: 0.579937 (Simulation time: 0 hr 22 min 32 sec) 
Finished CPU 0 instructions: 50000001 cycles: 86216215 cumulative IPC: 0.579937 (Simulation time: 0 hr 22 min 32 sec) 

ChampSim completed all CPUs

Region of Interest Statistics

CPU 0 cumulative IPC: 0.579937 instructions: 50000001 cycles: 86216215

SHEET
IPC : 0.579937

L1D TOTAL     ACCESS:   18628717  HIT:   16424456  MISS:    2204261
L1D LOAD      ACCESS:    7052900  HIT:    6336923  MISS:     715977
L1D RFO       ACCESS:    5789849  HIT:    4843923  MISS:     945926
L1D PREFETCH  ACCESS:    5785968  HIT:    5243610  MISS:     542358
L1D WRITEBACK ACCESS:          0  HIT:          0  MISS:          0
L1D PREFETCH  REQUESTED:    7094598  ISSUED:    6894054  USEFUL:     203020  USELESS:     339257
L1D AVERAGE MISS LATENCY: 176.654 cycles
L1D

SHEET
L1D-total_access : 18628717
L1D-total_hit : 16424456
L1D-total_miss : 2204261
L1D-load_access : 7052900
L1D-load_hit : 6336923
L1D-load_miss : 715977
L1D-rfo_access : 5789849
L1D-rfo_hit : 4843923
L1D-rfo_miss : 945926
L1D-prefetch_access : 5785968
L1D-prefetch_hit : 5243610
L1D-prefetch_miss : 542358
L1D-writeback_access : 0
L1D-writeback_hit : 0
L1D-writeback_miss : 0
L1D-prefetch_requested : 7094598
L1D-prefetch_issued : 6894054
L1D-prefetch_useful : 203020
L1D-prefetch_useless : 339257
L1D-Avg_miss_latency : 176.654

L1I TOTAL     ACCESS:   15363984  HIT:   11888941  MISS:    3475043
L1I LOAD      ACCESS:   10104320  HIT:   10055875  MISS:      48445
L1I RFO       ACCESS:          0  HIT:          0  MISS:          0
L1I PREFETCH  ACCESS:    5259664  HIT:    1833066  MISS:    3426598
L1I WRITEBACK ACCESS:          0  HIT:          0  MISS:          0
L1I PREFETCH  REQUESTED:    5448179  ISSUED:    5448122  USEFUL:    2659685  USELESS:     766982
L1I AVERAGE MISS LATENCY: 17.9773 cycles
L1I

SHEET
L1I-total_access : 15363984
L1I-total_hit : 11888941
L1I-total_miss : 3475043
L1I-load_access : 10104320
L1I-load_hit : 10055875
L1I-load_miss : 48445
L1I-rfo_access : 0
L1I-rfo_hit : 0
L1I-rfo_miss : 0
L1I-prefetch_access : 5259664
L1I-prefetch_hit : 1833066
L1I-prefetch_miss : 3426598
L1I-writeback_access : 0
L1I-writeback_hit : 0
L1I-writeback_miss : 0
L1I-prefetch_requested : 5448179
L1I-prefetch_issued : 5448122
L1I-prefetch_useful : 2659685
L1I-prefetch_useless : 766982
L1I-Avg_miss_latency : 17.9773

L2C TOTAL     ACCESS:    8192216  HIT:    6325233  MISS:    1866983
L2C LOAD      ACCESS:     523039  HIT:     253164  MISS:     269875
L2C RFO       ACCESS:     945543  HIT:      19219  MISS:     926324
L2C PREFETCH  ACCESS:    5560050  HIT:    4892791  MISS:     667259
L2C WRITEBACK ACCESS:    1163584  HIT:    1160059  MISS:       3525
L2C PREFETCH  REQUESTED:    6228490  ISSUED:    6217004  USEFUL:      24767  USELESS:     641490
L2C AVERAGE MISS LATENCY: 213.724 cycles
L2C

SHEET
L2C-total_access : 8192216
L2C-total_hit : 6325233
L2C-total_miss : 1866983
L2C-load_access : 523039
L2C-load_hit : 253164
L2C-load_miss : 269875
L2C-rfo_access : 945543
L2C-rfo_hit : 19219
L2C-rfo_miss : 926324
L2C-prefetch_access : 5560050
L2C-prefetch_hit : 4892791
L2C-prefetch_miss : 667259
L2C-writeback_access : 1163584
L2C-writeback_hit : 1160059
L2C-writeback_miss : 3525
L2C-prefetch_requested : 6228490
L2C-prefetch_issued : 6217004
L2C-prefetch_useful : 24767
L2C-prefetch_useless : 641490
L2C-Avg_miss_latency : 213.724

LLC TOTAL     ACCESS:    4344534  HIT:    2867468  MISS:    1477066
LLC LOAD      ACCESS:     269769  HIT:     166928  MISS:     102841
LLC RFO       ACCESS:     926319  HIT:     137559  MISS:     788760
LLC PREFETCH  ACCESS:    2048137  HIT:    1464891  MISS:     583246
LLC WRITEBACK ACCESS:    1100309  HIT:    1098090  MISS:       2219
LLC PREFETCH  REQUESTED:          0  ISSUED:          0  USEFUL:      34518  USELESS:     548400
LLC AVERAGE MISS LATENCY: 282.773 cycles
LLC

SHEET
LLC-total_access : 4344534
LLC-total_hit : 2867468
LLC-total_miss : 1477066
LLC-load_access : 269769
LLC-load_hit : 166928
LLC-load_miss : 102841
LLC-rfo_access : 926319
LLC-rfo_hit : 137559
LLC-rfo_miss : 788760
LLC-prefetch_access : 2048137
LLC-prefetch_hit : 1464891
LLC-prefetch_miss : 583246
LLC-writeback_access : 1100309
LLC-writeback_hit : 1098090
LLC-writeback_miss : 2219
LLC-prefetch_requested : 0
LLC-prefetch_issued : 0
LLC-prefetch_useful : 34518
LLC-prefetch_useless : 548400
LLC-Avg_miss_latency : 282.773

Major fault: 0 Minor fault: 22094
I-Shadow cache 408 bytes
Touched + WorthPF tables 3072 bytes 
MMA filter 174 bytes 
FNL filter 272 bytes 
TOTAL PREFETCHER STORAGE SIZE: 13014 bytes
CPU 0 L1I next line prefetcher final stats

 morteza stats start 

SHEET
fnlfilter_access_cntr : 29682930
iShadow_access_cntr : 43144464
missahead_access_cntr : 6298191
mmafilter_access_cntr : 13358402
touched_access_cntr : 19572156
worthpf_access_cntr : 27509150


morteza stats endCPU 0 L1D next line prefetcher final stats

DRAM Statistics
 CHANNEL 0
 RQ ROW_BUFFER_HIT:     421504  ROW_BUFFER_MISS:    1052950
 DBUS_CONGESTED:    1482268
 WQ ROW_BUFFER_HIT:     244635  ROW_BUFFER_MISS:     650959  FULL:          0

 AVG_CONGESTED_CYCLE: 6

CPU 0 Branch Prediction Accuracy: 99.712% MPKI: 0.47638 Average ROB Occupancy at Mispredict: 213.152

Branch types
NOT_BRANCH: 41729600 83.4592%
BRANCH_DIRECT_JUMP: 458221 0.916442%
BRANCH_INDIRECT: 49088 0.098176%
BRANCH_CONDITIONAL: 5938539 11.8771%
BRANCH_DIRECT_CALL: 745133 1.49027%
BRANCH_INDIRECT_CALL: 167110 0.33422%
BRANCH_RETURN: 912224 1.82445%
BRANCH_OTHER: 0 0%

