Initialize SIGNATURE TABLE
ST_SET: 1
ST_WAY: 256
ST_TAG_BIT: 16
ST_TAG_MASK: ffff

Initialize PATTERN TABLE
PT_SET: 512
PT_WAY: 4
SIG_DELTA_BIT: 7
C_SIG_BIT: 4
C_DELTA_BIT: 4

Initialize PREFETCH FILTER
FILTER_SET: 1024

*** ChampSim Multicore Out-of-Order Simulator ***

Warmup Instructions: 50000000
Simulation Instructions: 50000000
Number of CPUs: 1
LLC sets: 2048
LLC ways: 16
Off-chip DRAM Size: 4096 MB Channels: 1 Width: 64-bit Data Rate: 3200 MT/s

CPU 0 runs /home/mbaradaran/ChampSim/dpc3_traces/server_019.champsimtrace.xz
CPU 0 L1I next line prefetcher
CPU 0 L1D next line prefetcher
Heartbeat CPU 0 instructions: 10000002 cycles: 3624115 heartbeat IPC: 2.75929 cumulative IPC: 2.75929 (Simulation time: 0 hr 1 min 51 sec) 
Heartbeat CPU 0 instructions: 20000003 cycles: 7249904 heartbeat IPC: 2.75802 cumulative IPC: 2.75866 (Simulation time: 0 hr 3 min 45 sec) 
Heartbeat CPU 0 instructions: 30000002 cycles: 10874736 heartbeat IPC: 2.75875 cumulative IPC: 2.75869 (Simulation time: 0 hr 5 min 43 sec) 
Heartbeat CPU 0 instructions: 40000002 cycles: 14511027 heartbeat IPC: 2.75005 cumulative IPC: 2.75652 (Simulation time: 0 hr 7 min 36 sec) 
Heartbeat CPU 0 instructions: 50000001 cycles: 18135581 heartbeat IPC: 2.75896 cumulative IPC: 2.75701 (Simulation time: 0 hr 9 min 33 sec) 

Warmup complete CPU 0 instructions: 50000001 cycles: 18135581 (Simulation time: 0 hr 9 min 33 sec) 

Heartbeat CPU 0 instructions: 60000000 cycles: 37712310 heartbeat IPC: 0.51081 cumulative IPC: 0.51081 (Simulation time: 0 hr 12 min 14 sec) 
Heartbeat CPU 0 instructions: 70000002 cycles: 61046263 heartbeat IPC: 0.42856 cumulative IPC: 0.466084 (Simulation time: 0 hr 14 min 53 sec) 
Heartbeat CPU 0 instructions: 80000001 cycles: 81394040 heartbeat IPC: 0.491454 cumulative IPC: 0.474245 (Simulation time: 0 hr 17 min 30 sec) 
Heartbeat CPU 0 instructions: 90000002 cycles: 98643994 heartbeat IPC: 0.579712 cumulative IPC: 0.496843 (Simulation time: 0 hr 20 min 1 sec) 
Heartbeat CPU 0 instructions: 100000002 cycles: 115815884 heartbeat IPC: 0.582347 cumulative IPC: 0.511874 (Simulation time: 0 hr 22 min 29 sec) 
Finished CPU 0 instructions: 50000001 cycles: 97680303 cumulative IPC: 0.511874 (Simulation time: 0 hr 22 min 29 sec) 

ChampSim completed all CPUs

Region of Interest Statistics

CPU 0 cumulative IPC: 0.511874 instructions: 50000001 cycles: 97680303

SHEET
IPC : 0.511874

L1D TOTAL     ACCESS:   18307218  HIT:   16083603  MISS:    2223615
L1D LOAD      ACCESS:    6981323  HIT:    6232056  MISS:     749267
L1D RFO       ACCESS:    5502835  HIT:    4600901  MISS:     901934
L1D PREFETCH  ACCESS:    5823060  HIT:    5250646  MISS:     572414
L1D WRITEBACK ACCESS:          0  HIT:          0  MISS:          0
L1D PREFETCH  REQUESTED:    7018983  ISSUED:    6833473  USEFUL:     203246  USELESS:     369076
L1D AVERAGE MISS LATENCY: 186.775 cycles
L1D

SHEET
L1D-total_access : 18307218
L1D-total_hit : 16083603
L1D-total_miss : 2223615
L1D-load_access : 6981323
L1D-load_hit : 6232056
L1D-load_miss : 749267
L1D-rfo_access : 5502835
L1D-rfo_hit : 4600901
L1D-rfo_miss : 901934
L1D-prefetch_access : 5823060
L1D-prefetch_hit : 5250646
L1D-prefetch_miss : 572414
L1D-writeback_access : 0
L1D-writeback_hit : 0
L1D-writeback_miss : 0
L1D-prefetch_requested : 7018983
L1D-prefetch_issued : 6833473
L1D-prefetch_useful : 203246
L1D-prefetch_useless : 369076
L1D-Avg_miss_latency : 186.775

L1I TOTAL     ACCESS:   14529112  HIT:   11388789  MISS:    3140323
L1I LOAD      ACCESS:    9859351  HIT:    9808811  MISS:      50540
L1I RFO       ACCESS:          0  HIT:          0  MISS:          0
L1I PREFETCH  ACCESS:    4669761  HIT:    1579978  MISS:    3089783
L1I WRITEBACK ACCESS:          0  HIT:          0  MISS:          0
L1I PREFETCH  REQUESTED:    4835810  ISSUED:    4835686  USEFUL:    2388351  USELESS:     701456
L1I AVERAGE MISS LATENCY: 18.2382 cycles
L1I

SHEET
L1I-total_access : 14529112
L1I-total_hit : 11388789
L1I-total_miss : 3140323
L1I-load_access : 9859351
L1I-load_hit : 9808811
L1I-load_miss : 50540
L1I-rfo_access : 0
L1I-rfo_hit : 0
L1I-rfo_miss : 0
L1I-prefetch_access : 4669761
L1I-prefetch_hit : 1579978
L1I-prefetch_miss : 3089783
L1I-writeback_access : 0
L1I-writeback_hit : 0
L1I-writeback_miss : 0
L1I-prefetch_requested : 4835810
L1I-prefetch_issued : 4835686
L1I-prefetch_useful : 2388351
L1I-prefetch_useless : 701456
L1I-Avg_miss_latency : 18.2382

L2C TOTAL     ACCESS:    7750109  HIT:    5854518  MISS:    1895591
L2C LOAD      ACCESS:     584939  HIT:     247531  MISS:     337408
L2C RFO       ACCESS:     901517  HIT:      18601  MISS:     882916
L2C PREFETCH  ACCESS:    5089008  HIT:    4416220  MISS:     672788
L2C WRITEBACK ACCESS:    1174645  HIT:    1172166  MISS:       2479
L2C PREFETCH  REQUESTED:    5796584  ISSUED:    5784337  USEFUL:      24434  USELESS:     646971
L2C AVERAGE MISS LATENCY: 221.614 cycles
L2C

SHEET
L2C-total_access : 7750109
L2C-total_hit : 5854518
L2C-total_miss : 1895591
L2C-load_access : 584939
L2C-load_hit : 247531
L2C-load_miss : 337408
L2C-rfo_access : 901517
L2C-rfo_hit : 18601
L2C-rfo_miss : 882916
L2C-prefetch_access : 5089008
L2C-prefetch_hit : 4416220
L2C-prefetch_miss : 672788
L2C-writeback_access : 1174645
L2C-writeback_hit : 1172166
L2C-writeback_miss : 2479
L2C-prefetch_requested : 5796584
L2C-prefetch_issued : 5784337
L2C-prefetch_useful : 24434
L2C-prefetch_useless : 646971
L2C-Avg_miss_latency : 221.614

LLC TOTAL     ACCESS:    4336618  HIT:    2736442  MISS:    1600176
LLC LOAD      ACCESS:     337310  HIT:     170736  MISS:     166574
LLC RFO       ACCESS:     882907  HIT:     115847  MISS:     767060
LLC PREFETCH  ACCESS:    2005136  HIT:    1340622  MISS:     664514
LLC WRITEBACK ACCESS:    1111265  HIT:    1109237  MISS:       2028
LLC PREFETCH  REQUESTED:          0  ISSUED:          0  USEFUL:      52569  USELESS:     610989
LLC AVERAGE MISS LATENCY: 278.567 cycles
LLC

SHEET
LLC-total_access : 4336618
LLC-total_hit : 2736442
LLC-total_miss : 1600176
LLC-load_access : 337310
LLC-load_hit : 170736
LLC-load_miss : 166574
LLC-rfo_access : 882907
LLC-rfo_hit : 115847
LLC-rfo_miss : 767060
LLC-prefetch_access : 2005136
LLC-prefetch_hit : 1340622
LLC-prefetch_miss : 664514
LLC-writeback_access : 1111265
LLC-writeback_hit : 1109237
LLC-writeback_miss : 2028
LLC-prefetch_requested : 0
LLC-prefetch_issued : 0
LLC-prefetch_useful : 52569
LLC-prefetch_useless : 610989
LLC-Avg_miss_latency : 278.567

Major fault: 0 Minor fault: 25695
I-Shadow cache 408 bytes
Touched + WorthPF tables 3072 bytes 
MMA filter 174 bytes 
FNL filter 272 bytes 
TOTAL PREFETCHER STORAGE SIZE: 13014 bytes
CPU 0 L1I next line prefetcher final stats

 morteza stats start 

SHEET
fnlfilter_access_cntr : 28703054
iShadow_access_cntr : 42766624
missahead_access_cntr : 5831941
mmafilter_access_cntr : 12577343
touched_access_cntr : 18772401
worthpf_access_cntr : 26654088


morteza stats endCPU 0 L1D next line prefetcher final stats

DRAM Statistics
 CHANNEL 0
 RQ ROW_BUFFER_HIT:     400290  ROW_BUFFER_MISS:    1197625
 DBUS_CONGESTED:    1596002
 WQ ROW_BUFFER_HIT:     254797  ROW_BUFFER_MISS:     680598  FULL:          0

 AVG_CONGESTED_CYCLE: 6

CPU 0 Branch Prediction Accuracy: 99.2186% MPKI: 1.32192 Average ROB Occupancy at Mispredict: 178.539

Branch types
NOT_BRANCH: 41540796 83.0816%
BRANCH_DIRECT_JUMP: 462384 0.924768%
BRANCH_INDIRECT: 45460 0.09092%
BRANCH_CONDITIONAL: 6209282 12.4186%
BRANCH_DIRECT_CALL: 666241 1.33248%
BRANCH_INDIRECT_CALL: 204728 0.409456%
BRANCH_RETURN: 870978 1.74196%
BRANCH_OTHER: 0 0%

