Initialize SIGNATURE TABLE
ST_SET: 1
ST_WAY: 256
ST_TAG_BIT: 16
ST_TAG_MASK: ffff

Initialize PATTERN TABLE
PT_SET: 512
PT_WAY: 4
SIG_DELTA_BIT: 7
C_SIG_BIT: 4
C_DELTA_BIT: 4

Initialize PREFETCH FILTER
FILTER_SET: 1024

*** ChampSim Multicore Out-of-Order Simulator ***

Warmup Instructions: 50000000
Simulation Instructions: 50000000
Number of CPUs: 1
LLC sets: 2048
LLC ways: 16
Off-chip DRAM Size: 4096 MB Channels: 1 Width: 64-bit Data Rate: 3200 MT/s

CPU 0 runs /home/mbaradaran/ChampSim/dpc3_traces/server_003.champsimtrace.xz
CPU 0 L1I next line prefetcher
CPU 0 L1D next line prefetcher
Heartbeat CPU 0 instructions: 10000002 cycles: 3225062 heartbeat IPC: 3.10072 cumulative IPC: 3.10072 (Simulation time: 0 hr 1 min 40 sec) 
Heartbeat CPU 0 instructions: 20000000 cycles: 6545258 heartbeat IPC: 3.01187 cumulative IPC: 3.05565 (Simulation time: 0 hr 3 min 16 sec) 
Heartbeat CPU 0 instructions: 30000000 cycles: 9757136 heartbeat IPC: 3.11344 cumulative IPC: 3.07467 (Simulation time: 0 hr 5 min 0 sec) 
Heartbeat CPU 0 instructions: 40000001 cycles: 13174325 heartbeat IPC: 2.92638 cumulative IPC: 3.03621 (Simulation time: 0 hr 6 min 50 sec) 
Heartbeat CPU 0 instructions: 50000003 cycles: 16893686 heartbeat IPC: 2.68863 cumulative IPC: 2.95969 (Simulation time: 0 hr 8 min 40 sec) 

Warmup complete CPU 0 instructions: 50000003 cycles: 16893686 (Simulation time: 0 hr 8 min 40 sec) 

Heartbeat CPU 0 instructions: 60000000 cycles: 26095978 heartbeat IPC: 1.08669 cumulative IPC: 1.08669 (Simulation time: 0 hr 10 min 14 sec) 
Heartbeat CPU 0 instructions: 70000003 cycles: 35321583 heartbeat IPC: 1.08394 cumulative IPC: 1.08531 (Simulation time: 0 hr 11 min 39 sec) 
Heartbeat CPU 0 instructions: 80000000 cycles: 46503564 heartbeat IPC: 0.894296 cumulative IPC: 1.01318 (Simulation time: 0 hr 13 min 15 sec) 
Heartbeat CPU 0 instructions: 90000003 cycles: 57952048 heartbeat IPC: 0.873478 cumulative IPC: 0.974223 (Simulation time: 0 hr 14 min 54 sec) 
Heartbeat CPU 0 instructions: 100000001 cycles: 69916550 heartbeat IPC: 0.835806 cumulative IPC: 0.942989 (Simulation time: 0 hr 16 min 31 sec) 
Finished CPU 0 instructions: 50000002 cycles: 53022865 cumulative IPC: 0.942989 (Simulation time: 0 hr 16 min 31 sec) 

ChampSim completed all CPUs

Region of Interest Statistics

CPU 0 cumulative IPC: 0.942989 instructions: 50000002 cycles: 53022865

SHEET
IPC : 0.942989

L1D TOTAL     ACCESS:   20108216  HIT:   18967149  MISS:    1141067
L1D LOAD      ACCESS:    7905437  HIT:    7376227  MISS:     529210
L1D RFO       ACCESS:    4557114  HIT:    4439768  MISS:     117346
L1D PREFETCH  ACCESS:    7645665  HIT:    7151154  MISS:     494511
L1D WRITEBACK ACCESS:          0  HIT:          0  MISS:          0
L1D PREFETCH  REQUESTED:    7966271  ISSUED:    7874039  USEFUL:     156175  USELESS:     338295
L1D AVERAGE MISS LATENCY: 58.7599 cycles
L1D

SHEET
L1D-total_access : 20108216
L1D-total_hit : 18967149
L1D-total_miss : 1141067
L1D-load_access : 7905437
L1D-load_hit : 7376227
L1D-load_miss : 529210
L1D-rfo_access : 4557114
L1D-rfo_hit : 4439768
L1D-rfo_miss : 117346
L1D-prefetch_access : 7645665
L1D-prefetch_hit : 7151154
L1D-prefetch_miss : 494511
L1D-writeback_access : 0
L1D-writeback_hit : 0
L1D-writeback_miss : 0
L1D-prefetch_requested : 7966271
L1D-prefetch_issued : 7874039
L1D-prefetch_useful : 156175
L1D-prefetch_useless : 338295
L1D-Avg_miss_latency : 58.7599

L1I TOTAL     ACCESS:   11556201  HIT:    9919067  MISS:    1637134
L1I LOAD      ACCESS:    9298974  HIT:    8938249  MISS:     360725
L1I RFO       ACCESS:          0  HIT:          0  MISS:          0
L1I PREFETCH  ACCESS:    2257227  HIT:     980818  MISS:    1276409
L1I WRITEBACK ACCESS:          0  HIT:          0  MISS:          0
L1I PREFETCH  REQUESTED:    2499537  ISSUED:    2498675  USEFUL:     655571  USELESS:     620749
L1I AVERAGE MISS LATENCY: 40.5632 cycles
L1I

SHEET
L1I-total_access : 11556201
L1I-total_hit : 9919067
L1I-total_miss : 1637134
L1I-load_access : 9298974
L1I-load_hit : 8938249
L1I-load_miss : 360725
L1I-rfo_access : 0
L1I-rfo_hit : 0
L1I-rfo_miss : 0
L1I-prefetch_access : 2257227
L1I-prefetch_hit : 980818
L1I-prefetch_miss : 1276409
L1I-writeback_access : 0
L1I-writeback_hit : 0
L1I-writeback_miss : 0
L1I-prefetch_requested : 2499537
L1I-prefetch_issued : 2498675
L1I-prefetch_useful : 655571
L1I-prefetch_useless : 620749
L1I-Avg_miss_latency : 40.5632

L2C TOTAL     ACCESS:    3696977  HIT:    2536206  MISS:    1160771
L2C LOAD      ACCESS:     776615  HIT:     441301  MISS:     335314
L2C RFO       ACCESS:     114651  HIT:      38939  MISS:      75712
L2C PREFETCH  ACCESS:    2521430  HIT:    1773607  MISS:     747823
L2C WRITEBACK ACCESS:     284281  HIT:     282359  MISS:       1922
L2C PREFETCH  REQUESTED:    3154493  ISSUED:    3152436  USEFUL:      40004  USELESS:     705902
L2C AVERAGE MISS LATENCY: 87.1604 cycles
L2C

SHEET
L2C-total_access : 3696977
L2C-total_hit : 2536206
L2C-total_miss : 1160771
L2C-load_access : 776615
L2C-load_hit : 441301
L2C-load_miss : 335314
L2C-rfo_access : 114651
L2C-rfo_hit : 38939
L2C-rfo_miss : 75712
L2C-prefetch_access : 2521430
L2C-prefetch_hit : 1773607
L2C-prefetch_miss : 747823
L2C-writeback_access : 284281
L2C-writeback_hit : 282359
L2C-writeback_miss : 1922
L2C-prefetch_requested : 3154493
L2C-prefetch_issued : 3152436
L2C-prefetch_useful : 40004
L2C-prefetch_useless : 705902
L2C-Avg_miss_latency : 87.1604

LLC TOTAL     ACCESS:    2030227  HIT:    1541226  MISS:     489001
LLC LOAD      ACCESS:     335029  HIT:     238053  MISS:      96976
LLC RFO       ACCESS:      75708  HIT:      31114  MISS:      44594
LLC PREFETCH  ACCESS:    1447293  HIT:    1101256  MISS:     346037
LLC WRITEBACK ACCESS:     172197  HIT:     170803  MISS:       1394
LLC PREFETCH  REQUESTED:          0  ISSUED:          0  USEFUL:      33772  USELESS:     303211
LLC AVERAGE MISS LATENCY: 186.779 cycles
LLC

SHEET
LLC-total_access : 2030227
LLC-total_hit : 1541226
LLC-total_miss : 489001
LLC-load_access : 335029
LLC-load_hit : 238053
LLC-load_miss : 96976
LLC-rfo_access : 75708
LLC-rfo_hit : 31114
LLC-rfo_miss : 44594
LLC-prefetch_access : 1447293
LLC-prefetch_hit : 1101256
LLC-prefetch_miss : 346037
LLC-writeback_access : 172197
LLC-writeback_hit : 170803
LLC-writeback_miss : 1394
LLC-prefetch_requested : 0
LLC-prefetch_issued : 0
LLC-prefetch_useful : 33772
LLC-prefetch_useless : 303211
LLC-Avg_miss_latency : 186.779

Major fault: 0 Minor fault: 7798
I-Shadow cache 408 bytes
Touched + WorthPF tables 3072 bytes 
MMA filter 174 bytes 
FNL filter 272 bytes 
TOTAL PREFETCHER STORAGE SIZE: 13014 bytes
CPU 0 L1I next line prefetcher final stats

 morteza stats start 

SHEET
fnlfilter_access_cntr : 17351009
iShadow_access_cntr : 40721910
missahead_access_cntr : 1605406
mmafilter_access_cntr : 3781270
touched_access_cntr : 9495981
worthpf_access_cntr : 17833551


morteza stats endCPU 0 L1D next line prefetcher final stats

DRAM Statistics
 CHANNEL 0
 RQ ROW_BUFFER_HIT:     116332  ROW_BUFFER_MISS:     371211
 DBUS_CONGESTED:     258236
 WQ ROW_BUFFER_HIT:      25204  ROW_BUFFER_MISS:      85252  FULL:          0

 AVG_CONGESTED_CYCLE: 5

CPU 0 Branch Prediction Accuracy: 95.439% MPKI: 9.02702 Average ROB Occupancy at Mispredict: 63.6221

Branch types
NOT_BRANCH: 40104088 80.2082%
BRANCH_DIRECT_JUMP: 497928 0.995856%
BRANCH_INDIRECT: 130587 0.261174%
BRANCH_CONDITIONAL: 7219018 14.438%
BRANCH_DIRECT_CALL: 625807 1.25161%
BRANCH_INDIRECT_CALL: 389787 0.779574%
BRANCH_RETURN: 1032747 2.06549%
BRANCH_OTHER: 0 0%

