Initialize SIGNATURE TABLE
ST_SET: 1
ST_WAY: 256
ST_TAG_BIT: 16
ST_TAG_MASK: ffff

Initialize PATTERN TABLE
PT_SET: 512
PT_WAY: 4
SIG_DELTA_BIT: 7
C_SIG_BIT: 4
C_DELTA_BIT: 4

Initialize PREFETCH FILTER
FILTER_SET: 1024

*** ChampSim Multicore Out-of-Order Simulator ***

Warmup Instructions: 50000000
Simulation Instructions: 50000000
Number of CPUs: 1
LLC sets: 2048
LLC ways: 16
Off-chip DRAM Size: 4096 MB Channels: 1 Width: 64-bit Data Rate: 3200 MT/s

CPU 0 runs /home/mbaradaran/ChampSim/dpc3_traces/server_031.champsimtrace.xz
CPU 0 L1D next line prefetcher
Heartbeat CPU 0 instructions: 10000003 cycles: 3518333 heartbeat IPC: 2.84226 cumulative IPC: 2.84226 (Simulation time: 0 hr 1 min 59 sec) 
Heartbeat CPU 0 instructions: 20000002 cycles: 7035075 heartbeat IPC: 2.84354 cumulative IPC: 2.8429 (Simulation time: 0 hr 3 min 56 sec) 
Heartbeat CPU 0 instructions: 30000002 cycles: 10551976 heartbeat IPC: 2.84341 cumulative IPC: 2.84307 (Simulation time: 0 hr 5 min 46 sec) 
Heartbeat CPU 0 instructions: 40000003 cycles: 14065201 heartbeat IPC: 2.84639 cumulative IPC: 2.8439 (Simulation time: 0 hr 7 min 40 sec) 
Heartbeat CPU 0 instructions: 50000001 cycles: 17580601 heartbeat IPC: 2.84463 cumulative IPC: 2.84404 (Simulation time: 0 hr 9 min 37 sec) 

Warmup complete CPU 0 instructions: 50000001 cycles: 17580601 (Simulation time: 0 hr 9 min 37 sec) 

Heartbeat CPU 0 instructions: 60000000 cycles: 26894522 heartbeat IPC: 1.07366 cumulative IPC: 1.07366 (Simulation time: 0 hr 11 min 16 sec) 
Heartbeat CPU 0 instructions: 70000002 cycles: 36402045 heartbeat IPC: 1.0518 cumulative IPC: 1.06262 (Simulation time: 0 hr 12 min 49 sec) 
*** Reached end of trace for Core: 0 Repeating trace: /home/mbaradaran/ChampSim/dpc3_traces/server_031.champsimtrace.xz
Heartbeat CPU 0 instructions: 80000000 cycles: 45712461 heartbeat IPC: 1.07407 cumulative IPC: 1.06641 (Simulation time: 0 hr 14 min 30 sec) 
Heartbeat CPU 0 instructions: 90000001 cycles: 54963190 heartbeat IPC: 1.081 cumulative IPC: 1.07002 (Simulation time: 0 hr 16 min 10 sec) 
Heartbeat CPU 0 instructions: 100000000 cycles: 64166985 heartbeat IPC: 1.08651 cumulative IPC: 1.07327 (Simulation time: 0 hr 17 min 48 sec) 
Finished CPU 0 instructions: 50000000 cycles: 46586386 cumulative IPC: 1.07327 (Simulation time: 0 hr 17 min 48 sec) 

ChampSim completed all CPUs

Region of Interest Statistics

CPU 0 cumulative IPC: 1.07327 instructions: 50000000 cycles: 46586386

SHEET
IPC : 1.07327

L1D TOTAL     ACCESS:   21114243  HIT:   19207562  MISS:    1906681
L1D LOAD      ACCESS:    7521833  HIT:    6657292  MISS:     864541
L1D RFO       ACCESS:    6386246  HIT:    6094609  MISS:     291637
L1D PREFETCH  ACCESS:    7206164  HIT:    6455661  MISS:     750503
L1D WRITEBACK ACCESS:          0  HIT:          0  MISS:          0
L1D PREFETCH  REQUESTED:    7585040  ISSUED:    7498209  USEFUL:     183034  USELESS:     567471
L1D AVERAGE MISS LATENCY: 21.9138 cycles
L1D

SHEET
L1D-total_access : 21114243
L1D-total_hit : 19207562
L1D-total_miss : 1906681
L1D-load_access : 7521833
L1D-load_hit : 6657292
L1D-load_miss : 864541
L1D-rfo_access : 6386246
L1D-rfo_hit : 6094609
L1D-rfo_miss : 291637
L1D-prefetch_access : 7206164
L1D-prefetch_hit : 6455661
L1D-prefetch_miss : 750503
L1D-writeback_access : 0
L1D-writeback_hit : 0
L1D-writeback_miss : 0
L1D-prefetch_requested : 7585040
L1D-prefetch_issued : 7498209
L1D-prefetch_useful : 183034
L1D-prefetch_useless : 567471
L1D-Avg_miss_latency : 21.9138
L1D-Morteza_fill_l2_prefetches : 0

L1I TOTAL     ACCESS:   10984332  HIT:    7887085  MISS:    3097247
L1I LOAD      ACCESS:    9366554  HIT:    7431072  MISS:    1935482
L1I RFO       ACCESS:          0  HIT:          0  MISS:          0
L1I PREFETCH  ACCESS:    1617778  HIT:     456013  MISS:    1161765
L1I WRITEBACK ACCESS:          0  HIT:          0  MISS:          0
L1I PREFETCH  REQUESTED:    2717129  ISSUED:    2717129  USEFUL:    1063662  USELESS:      98126
L1I AVERAGE MISS LATENCY: 12.5714 cycles
L1I

SHEET
L1I-total_access : 10984332
L1I-total_hit : 7887085
L1I-total_miss : 3097247
L1I-load_access : 9366554
L1I-load_hit : 7431072
L1I-load_miss : 1935482
L1I-rfo_access : 0
L1I-rfo_hit : 0
L1I-rfo_miss : 0
L1I-prefetch_access : 1617778
L1I-prefetch_hit : 456013
L1I-prefetch_miss : 1161765
L1I-writeback_access : 0
L1I-writeback_hit : 0
L1I-writeback_miss : 0
L1I-prefetch_requested : 2717129
L1I-prefetch_issued : 2717129
L1I-prefetch_useful : 1063662
L1I-prefetch_useless : 98126
L1I-Avg_miss_latency : 12.5714
L1I-Morteza_fill_l2_prefetches : 0

L2C TOTAL     ACCESS:    7552958  HIT:    6910660  MISS:     642298
L2C LOAD      ACCESS:    1894924  HIT:    1654411  MISS:     240513
L2C RFO       ACCESS:     289402  HIT:     249796  MISS:      39606
L2C PREFETCH  ACCESS:    4752033  HIT:    4390471  MISS:     361562
L2C WRITEBACK ACCESS:     616599  HIT:     615982  MISS:        617
L2C PREFETCH  REQUESTED:    5302532  ISSUED:    5300167  USEFUL:      17072  USELESS:     344235
L2C AVERAGE MISS LATENCY: 43.2819 cycles
L2C

SHEET
L2C-total_access : 7552958
L2C-total_hit : 6910660
L2C-total_miss : 642298
L2C-load_access : 1894924
L2C-load_hit : 1654411
L2C-load_miss : 240513
L2C-rfo_access : 289402
L2C-rfo_hit : 249796
L2C-rfo_miss : 39606
L2C-prefetch_access : 4752033
L2C-prefetch_hit : 4390471
L2C-prefetch_miss : 361562
L2C-writeback_access : 616599
L2C-writeback_hit : 615982
L2C-writeback_miss : 617
L2C-prefetch_requested : 5302532
L2C-prefetch_issued : 5300167
L2C-prefetch_useful : 17072
L2C-prefetch_useless : 344235
L2C-Avg_miss_latency : 43.2819
L2C-Morteza_fill_l2_prefetches : 1998806

LLC TOTAL     ACCESS:    2335790  HIT:    2256890  MISS:      78900
LLC LOAD      ACCESS:     240238  HIT:     220808  MISS:      19430
LLC RFO       ACCESS:      39605  HIT:      35368  MISS:       4237
LLC PREFETCH  ACCESS:    1982696  HIT:    1928021  MISS:      54675
LLC WRITEBACK ACCESS:      73251  HIT:      72693  MISS:        558
LLC PREFETCH  REQUESTED:          0  ISSUED:          0  USEFUL:       2910  USELESS:      51334
LLC AVERAGE MISS LATENCY: 157.059 cycles
LLC

SHEET
LLC-total_access : 2335790
LLC-total_hit : 2256890
LLC-total_miss : 78900
LLC-load_access : 240238
LLC-load_hit : 220808
LLC-load_miss : 19430
LLC-rfo_access : 39605
LLC-rfo_hit : 35368
LLC-rfo_miss : 4237
LLC-prefetch_access : 1982696
LLC-prefetch_hit : 1928021
LLC-prefetch_miss : 54675
LLC-writeback_access : 73251
LLC-writeback_hit : 72693
LLC-writeback_miss : 558
LLC-prefetch_requested : 0
LLC-prefetch_issued : 0
LLC-prefetch_useful : 2910
LLC-prefetch_useless : 51334
LLC-Avg_miss_latency : 157.059
LLC-Morteza_fill_l2_prefetches : 1605246

Major fault: 0 Minor fault: 6041
num_of_hits: 6870893
num_of_misses: 2857545
hit_rate: 0.706269
observed_signatures: 6345
RAS addresses: 1863
branch_addresses: 9791
RAS match: 2406664	 RAS_mismatches: 10707	 accuracy: 0.995571

 morteza stats start 

SHEET
RAS_access_cntr : 23568241
current_block_access_cntr : 42587542
table_access_cntr : 8299837
last_block_access_cntr : 42587542
last_signature_access_cntr : 9669518
miss_log_access_cntr : 6302752
prefetch_queue_access_cntr : 10225580
signature_access_cntr : 14504277
miss log count : 26


morteza stats endCPU 0 L1D next line prefetcher final stats

DRAM Statistics
 CHANNEL 0
 RQ ROW_BUFFER_HIT:      21864  ROW_BUFFER_MISS:      56474
 DBUS_CONGESTED:      31568
 WQ ROW_BUFFER_HIT:        702  ROW_BUFFER_MISS:       5333  FULL:          0

 AVG_CONGESTED_CYCLE: 4

CPU 0 Branch Prediction Accuracy: 99.6894% MPKI: 0.58048 Average ROB Occupancy at Mispredict: 107.196

Branch types
NOT_BRANCH: 40655604 81.3112%
BRANCH_DIRECT_JUMP: 546484 1.09297%
BRANCH_INDIRECT: 172433 0.344866%
BRANCH_CONDITIONAL: 6207577 12.4152%
BRANCH_DIRECT_CALL: 1018498 2.037%
BRANCH_INDIRECT_CALL: 190373 0.380746%
BRANCH_RETURN: 1208857 2.41771%
BRANCH_OTHER: 0 0%

