Initialize SIGNATURE TABLE
ST_SET: 1
ST_WAY: 256
ST_TAG_BIT: 16
ST_TAG_MASK: ffff

Initialize PATTERN TABLE
PT_SET: 512
PT_WAY: 4
SIG_DELTA_BIT: 7
C_SIG_BIT: 4
C_DELTA_BIT: 4

Initialize PREFETCH FILTER
FILTER_SET: 1024

*** ChampSim Multicore Out-of-Order Simulator ***

Warmup Instructions: 50000000
Simulation Instructions: 50000000
Number of CPUs: 1
LLC sets: 2048
LLC ways: 16
Off-chip DRAM Size: 4096 MB Channels: 1 Width: 64-bit Data Rate: 3200 MT/s

CPU 0 runs /home/mbaradaran/ChampSim/dpc3_traces/server_015.champsimtrace.xz
CPU 0 L1D next line prefetcher
Heartbeat CPU 0 instructions: 10000002 cycles: 3519405 heartbeat IPC: 2.84139 cumulative IPC: 2.84139 (Simulation time: 0 hr 1 min 50 sec) 
Heartbeat CPU 0 instructions: 20000001 cycles: 7106969 heartbeat IPC: 2.78741 cumulative IPC: 2.81414 (Simulation time: 0 hr 3 min 40 sec) 
Heartbeat CPU 0 instructions: 30000001 cycles: 10645894 heartbeat IPC: 2.82572 cumulative IPC: 2.81799 (Simulation time: 0 hr 5 min 25 sec) 
Heartbeat CPU 0 instructions: 40000002 cycles: 14193933 heartbeat IPC: 2.81846 cumulative IPC: 2.81811 (Simulation time: 0 hr 7 min 18 sec) 
Heartbeat CPU 0 instructions: 50000002 cycles: 17742193 heartbeat IPC: 2.81828 cumulative IPC: 2.81814 (Simulation time: 0 hr 9 min 5 sec) 

Warmup complete CPU 0 instructions: 50000002 cycles: 17742193 (Simulation time: 0 hr 9 min 5 sec) 

Heartbeat CPU 0 instructions: 60000002 cycles: 24452712 heartbeat IPC: 1.4902 cumulative IPC: 1.4902 (Simulation time: 0 hr 10 min 36 sec) 
Heartbeat CPU 0 instructions: 70000003 cycles: 31192775 heartbeat IPC: 1.48367 cumulative IPC: 1.48692 (Simulation time: 0 hr 12 min 10 sec) 
Heartbeat CPU 0 instructions: 80000000 cycles: 37910126 heartbeat IPC: 1.48868 cumulative IPC: 1.48751 (Simulation time: 0 hr 13 min 42 sec) 
Heartbeat CPU 0 instructions: 90000000 cycles: 44646423 heartbeat IPC: 1.4845 cumulative IPC: 1.48676 (Simulation time: 0 hr 15 min 11 sec) 
Heartbeat CPU 0 instructions: 100000002 cycles: 51394470 heartbeat IPC: 1.48191 cumulative IPC: 1.48578 (Simulation time: 0 hr 16 min 43 sec) 
Finished CPU 0 instructions: 50000000 cycles: 33652277 cumulative IPC: 1.48578 (Simulation time: 0 hr 16 min 43 sec) 

ChampSim completed all CPUs

Region of Interest Statistics

CPU 0 cumulative IPC: 1.48578 instructions: 50000000 cycles: 33652277

SHEET
IPC : 1.48578

L1D TOTAL     ACCESS:   22433906  HIT:   22416310  MISS:      17596
L1D LOAD      ACCESS:    6983334  HIT:    6982801  MISS:        533
L1D RFO       ACCESS:    8568989  HIT:    8568893  MISS:         96
L1D PREFETCH  ACCESS:    6881583  HIT:    6864616  MISS:      16967
L1D WRITEBACK ACCESS:          0  HIT:          0  MISS:          0
L1D PREFETCH  REQUESTED:    6983389  ISSUED:    6886352  USEFUL:         86  USELESS:      16878
L1D AVERAGE MISS LATENCY: 15.9553 cycles
L1D

SHEET
L1D-total_access : 22433906
L1D-total_hit : 22416310
L1D-total_miss : 17596
L1D-load_access : 6983334
L1D-load_hit : 6982801
L1D-load_miss : 533
L1D-rfo_access : 8568989
L1D-rfo_hit : 8568893
L1D-rfo_miss : 96
L1D-prefetch_access : 6881583
L1D-prefetch_hit : 6864616
L1D-prefetch_miss : 16967
L1D-writeback_access : 0
L1D-writeback_hit : 0
L1D-writeback_miss : 0
L1D-prefetch_requested : 6983389
L1D-prefetch_issued : 6886352
L1D-prefetch_useful : 86
L1D-prefetch_useless : 16878
L1D-Avg_miss_latency : 15.9553
L1D-Morteza_fill_l2_prefetches : 0

L1I TOTAL     ACCESS:   12918985  HIT:   10767294  MISS:    2151691
L1I LOAD      ACCESS:    9535339  HIT:    8652127  MISS:     883212
L1I RFO       ACCESS:          0  HIT:          0  MISS:          0
L1I PREFETCH  ACCESS:    3383646  HIT:    2115167  MISS:    1268479
L1I WRITEBACK ACCESS:          0  HIT:          0  MISS:          0
L1I PREFETCH  REQUESTED:    4389845  ISSUED:    4389845  USEFUL:    1096630  USELESS:     171840
L1I AVERAGE MISS LATENCY: 8.80141 cycles
L1I

SHEET
L1I-total_access : 12918985
L1I-total_hit : 10767294
L1I-total_miss : 2151691
L1I-load_access : 9535339
L1I-load_hit : 8652127
L1I-load_miss : 883212
L1I-rfo_access : 0
L1I-rfo_hit : 0
L1I-rfo_miss : 0
L1I-prefetch_access : 3383646
L1I-prefetch_hit : 2115167
L1I-prefetch_miss : 1268479
L1I-writeback_access : 0
L1I-writeback_hit : 0
L1I-writeback_miss : 0
L1I-prefetch_requested : 4389845
L1I-prefetch_issued : 4389845
L1I-prefetch_useful : 1096630
L1I-prefetch_useless : 171840
L1I-Avg_miss_latency : 8.80141
L1I-Morteza_fill_l2_prefetches : 0

L2C TOTAL     ACCESS:    2822942  HIT:    2822683  MISS:        259
L2C LOAD      ACCESS:      91010  HIT:      90946  MISS:         64
L2C RFO       ACCESS:         94  HIT:         92  MISS:          2
L2C PREFETCH  ACCESS:    2731487  HIT:    2731295  MISS:        192
L2C WRITEBACK ACCESS:        351  HIT:        350  MISS:          1
L2C PREFETCH  REQUESTED:    1528501  ISSUED:    1528500  USEFUL:         65  USELESS:         92
L2C AVERAGE MISS LATENCY: 112.699 cycles
L2C

SHEET
L2C-total_access : 2822942
L2C-total_hit : 2822683
L2C-total_miss : 259
L2C-load_access : 91010
L2C-load_hit : 90946
L2C-load_miss : 64
L2C-rfo_access : 94
L2C-rfo_hit : 92
L2C-rfo_miss : 2
L2C-prefetch_access : 2731487
L2C-prefetch_hit : 2731295
L2C-prefetch_miss : 192
L2C-writeback_access : 351
L2C-writeback_hit : 350
L2C-writeback_miss : 1
L2C-prefetch_requested : 1528501
L2C-prefetch_issued : 1528500
L2C-prefetch_useful : 65
L2C-prefetch_useless : 92
L2C-Avg_miss_latency : 112.699
L2C-Morteza_fill_l2_prefetches : 671564

LLC TOTAL     ACCESS:     361463  HIT:     360666  MISS:        797
LLC LOAD      ACCESS:         64  HIT:         49  MISS:         15
LLC RFO       ACCESS:          2  HIT:          0  MISS:          2
LLC PREFETCH  ACCESS:     361314  HIT:     360536  MISS:        778
LLC WRITEBACK ACCESS:         83  HIT:         81  MISS:          2
LLC PREFETCH  REQUESTED:          0  ISSUED:          0  USEFUL:          7  USELESS:        178
LLC AVERAGE MISS LATENCY: 286.443 cycles
LLC

SHEET
LLC-total_access : 361463
LLC-total_hit : 360666
LLC-total_miss : 797
LLC-load_access : 64
LLC-load_hit : 49
LLC-load_miss : 15
LLC-rfo_access : 2
LLC-rfo_hit : 0
LLC-rfo_miss : 2
LLC-prefetch_access : 361314
LLC-prefetch_hit : 360536
LLC-prefetch_miss : 778
LLC-writeback_access : 83
LLC-writeback_hit : 81
LLC-writeback_miss : 2
LLC-prefetch_requested : 0
LLC-prefetch_issued : 0
LLC-prefetch_useful : 7
LLC-prefetch_useless : 178
LLC-Avg_miss_latency : 286.443
LLC-Morteza_fill_l2_prefetches : 360478

Major fault: 0 Minor fault: 1888
num_of_hits: 10365021
num_of_misses: 27025
hit_rate: 0.997399
observed_signatures: 11411
RAS addresses: 2731
branch_addresses: 13081
RAS match: 2571908	 RAS_mismatches: 20480	 accuracy: 0.9921

 morteza stats start 

SHEET
RAS_access_cntr : 25923953
current_block_access_cntr : 42364496
table_access_cntr : 10378531
last_block_access_cntr : 42364496
last_signature_access_cntr : 10369598
miss_log_access_cntr : 1964724
prefetch_queue_access_cntr : 13277968
signature_access_cntr : 15554397
miss log count : 21


morteza stats endCPU 0 L1D next line prefetcher final stats

DRAM Statistics
 CHANNEL 0
 RQ ROW_BUFFER_HIT:        152  ROW_BUFFER_MISS:        643
 DBUS_CONGESTED:        518
 WQ ROW_BUFFER_HIT:         63  ROW_BUFFER_MISS:        484  FULL:          0

 AVG_CONGESTED_CYCLE: 6

CPU 0 Branch Prediction Accuracy: 99.9085% MPKI: 0.15428 Average ROB Occupancy at Mispredict: 250.843

Branch types
NOT_BRANCH: 41572991 83.146%
BRANCH_DIRECT_JUMP: 436253 0.872506%
BRANCH_INDIRECT: 0 0%
BRANCH_CONDITIONAL: 5395878 10.7918%
BRANCH_DIRECT_CALL: 1173386 2.34677%
BRANCH_INDIRECT_CALL: 123910 0.24782%
BRANCH_RETURN: 1297308 2.59462%
BRANCH_OTHER: 0 0%

