Initialize SIGNATURE TABLE
ST_SET: 1
ST_WAY: 256
ST_TAG_BIT: 16
ST_TAG_MASK: ffff

Initialize PATTERN TABLE
PT_SET: 512
PT_WAY: 4
SIG_DELTA_BIT: 7
C_SIG_BIT: 4
C_DELTA_BIT: 4

Initialize PREFETCH FILTER
FILTER_SET: 1024

*** ChampSim Multicore Out-of-Order Simulator ***

Warmup Instructions: 50000000
Simulation Instructions: 50000000
Number of CPUs: 1
LLC sets: 2048
LLC ways: 16
Off-chip DRAM Size: 4096 MB Channels: 1 Width: 64-bit Data Rate: 3200 MT/s

CPU 0 runs /home/mbaradaran/ChampSim/dpc3_traces/server_018.champsimtrace.xz
CPU 0 L1D next line prefetcher
Heartbeat CPU 0 instructions: 10000003 cycles: 3615522 heartbeat IPC: 2.76585 cumulative IPC: 2.76585 (Simulation time: 0 hr 1 min 56 sec) 
Heartbeat CPU 0 instructions: 20000001 cycles: 7235814 heartbeat IPC: 2.76221 cumulative IPC: 2.76403 (Simulation time: 0 hr 3 min 52 sec) 
Heartbeat CPU 0 instructions: 30000003 cycles: 10710675 heartbeat IPC: 2.87781 cumulative IPC: 2.80094 (Simulation time: 0 hr 5 min 43 sec) 
Heartbeat CPU 0 instructions: 40000000 cycles: 14221656 heartbeat IPC: 2.84821 cumulative IPC: 2.81261 (Simulation time: 0 hr 7 min 36 sec) 
Heartbeat CPU 0 instructions: 50000003 cycles: 17837776 heartbeat IPC: 2.7654 cumulative IPC: 2.80304 (Simulation time: 0 hr 9 min 28 sec) 

Warmup complete CPU 0 instructions: 50000003 cycles: 17837776 (Simulation time: 0 hr 9 min 28 sec) 

Heartbeat CPU 0 instructions: 60000000 cycles: 35553410 heartbeat IPC: 0.564473 cumulative IPC: 0.564473 (Simulation time: 0 hr 12 min 1 sec) 
Heartbeat CPU 0 instructions: 70000001 cycles: 53319853 heartbeat IPC: 0.562859 cumulative IPC: 0.563665 (Simulation time: 0 hr 14 min 42 sec) 
Heartbeat CPU 0 instructions: 80000000 cycles: 70983002 heartbeat IPC: 0.56615 cumulative IPC: 0.564491 (Simulation time: 0 hr 17 min 24 sec) 
Heartbeat CPU 0 instructions: 90000002 cycles: 88754968 heartbeat IPC: 0.562684 cumulative IPC: 0.564038 (Simulation time: 0 hr 19 min 56 sec) 
Heartbeat CPU 0 instructions: 100000001 cycles: 106607864 heartbeat IPC: 0.560133 cumulative IPC: 0.563253 (Simulation time: 0 hr 22 min 17 sec) 
Finished CPU 0 instructions: 50000002 cycles: 88770090 cumulative IPC: 0.563253 (Simulation time: 0 hr 22 min 17 sec) 

ChampSim completed all CPUs

Region of Interest Statistics

CPU 0 cumulative IPC: 0.563253 instructions: 50000002 cycles: 88770090

SHEET
IPC : 0.563253

L1D TOTAL     ACCESS:   18825606  HIT:   16607769  MISS:    2217837
L1D LOAD      ACCESS:    7142771  HIT:    6415926  MISS:     726845
L1D RFO       ACCESS:    5816784  HIT:    4864537  MISS:     952247
L1D PREFETCH  ACCESS:    5866051  HIT:    5327306  MISS:     538745
L1D WRITEBACK ACCESS:          0  HIT:          0  MISS:          0
L1D PREFETCH  REQUESTED:    7183894  ISSUED:    6981851  USEFUL:     198923  USELESS:     339911
L1D AVERAGE MISS LATENCY: 173.988 cycles
L1D

SHEET
L1D-total_access : 18825606
L1D-total_hit : 16607769
L1D-total_miss : 2217837
L1D-load_access : 7142771
L1D-load_hit : 6415926
L1D-load_miss : 726845
L1D-rfo_access : 5816784
L1D-rfo_hit : 4864537
L1D-rfo_miss : 952247
L1D-prefetch_access : 5866051
L1D-prefetch_hit : 5327306
L1D-prefetch_miss : 538745
L1D-writeback_access : 0
L1D-writeback_hit : 0
L1D-writeback_miss : 0
L1D-prefetch_requested : 7183894
L1D-prefetch_issued : 6981851
L1D-prefetch_useful : 198923
L1D-prefetch_useless : 339911
L1D-Avg_miss_latency : 173.988
L1D-Morteza_fill_l2_prefetches : 0

L1I TOTAL     ACCESS:   13330190  HIT:   10722821  MISS:    2607369
L1I LOAD      ACCESS:    9922722  HIT:    9009948  MISS:     912774
L1I RFO       ACCESS:          0  HIT:          0  MISS:          0
L1I PREFETCH  ACCESS:    3407468  HIT:    1712873  MISS:    1694595
L1I WRITEBACK ACCESS:          0  HIT:          0  MISS:          0
L1I PREFETCH  REQUESTED:    4648813  ISSUED:    4648813  USEFUL:    1529779  USELESS:     164800
L1I AVERAGE MISS LATENCY: 11.5905 cycles
L1I

SHEET
L1I-total_access : 13330190
L1I-total_hit : 10722821
L1I-total_miss : 2607369
L1I-load_access : 9922722
L1I-load_hit : 9009948
L1I-load_miss : 912774
L1I-rfo_access : 0
L1I-rfo_hit : 0
L1I-rfo_miss : 0
L1I-prefetch_access : 3407468
L1I-prefetch_hit : 1712873
L1I-prefetch_miss : 1694595
L1I-writeback_access : 0
L1I-writeback_hit : 0
L1I-writeback_miss : 0
L1I-prefetch_requested : 4648813
L1I-prefetch_issued : 4648813
L1I-prefetch_useful : 1529779
L1I-prefetch_useless : 164800
L1I-Avg_miss_latency : 11.5905
L1I-Morteza_fill_l2_prefetches : 0

L2C TOTAL     ACCESS:    7206550  HIT:    5347356  MISS:    1859194
L2C LOAD      ACCESS:     638426  HIT:     371662  MISS:     266764
L2C RFO       ACCESS:     951731  HIT:      20075  MISS:     931656
L2C PREFETCH  ACCESS:    4446392  HIT:    3788251  MISS:     658141
L2C WRITEBACK ACCESS:    1170001  HIT:    1167368  MISS:       2633
L2C PREFETCH  REQUESTED:    4235691  ISSUED:    4228628  USEFUL:      24251  USELESS:     634893
L2C AVERAGE MISS LATENCY: 211.76 cycles
L2C

SHEET
L2C-total_access : 7206550
L2C-total_hit : 5347356
L2C-total_miss : 1859194
L2C-load_access : 638426
L2C-load_hit : 371662
L2C-load_miss : 266764
L2C-rfo_access : 951731
L2C-rfo_hit : 20075
L2C-rfo_miss : 931656
L2C-prefetch_access : 4446392
L2C-prefetch_hit : 3788251
L2C-prefetch_miss : 658141
L2C-writeback_access : 1170001
L2C-writeback_hit : 1167368
L2C-writeback_miss : 2633
L2C-prefetch_requested : 4235691
L2C-prefetch_issued : 4228628
L2C-prefetch_useful : 24251
L2C-prefetch_useless : 634893
L2C-Avg_miss_latency : 211.76
L2C-Morteza_fill_l2_prefetches : 1258438

LLC TOTAL     ACCESS:    4135308  HIT:    2697722  MISS:    1437586
LLC LOAD      ACCESS:     266643  HIT:     168723  MISS:      97920
LLC RFO       ACCESS:     931651  HIT:     137644  MISS:     794007
LLC PREFETCH  ACCESS:    1835876  HIT:    1292173  MISS:     543703
LLC WRITEBACK ACCESS:    1101138  HIT:    1099182  MISS:       1956
LLC PREFETCH  REQUESTED:          0  ISSUED:          0  USEFUL:      30604  USELESS:     513122
LLC AVERAGE MISS LATENCY: 275.86 cycles
LLC

SHEET
LLC-total_access : 4135308
LLC-total_hit : 2697722
LLC-total_miss : 1437586
LLC-load_access : 266643
LLC-load_hit : 168723
LLC-load_miss : 97920
LLC-rfo_access : 931651
LLC-rfo_hit : 137644
LLC-rfo_miss : 794007
LLC-prefetch_access : 1835876
LLC-prefetch_hit : 1292173
LLC-prefetch_miss : 543703
LLC-writeback_access : 1101138
LLC-writeback_hit : 1099182
LLC-writeback_miss : 1956
LLC-prefetch_requested : 0
LLC-prefetch_issued : 0
LLC-prefetch_useful : 30604
LLC-prefetch_useless : 513122
LLC-Avg_miss_latency : 275.86
LLC-Morteza_fill_l2_prefetches : 953817

Major fault: 0 Minor fault: 22442
num_of_hits: 7358454
num_of_misses: 10826
hit_rate: 0.998531
observed_signatures: 3421
RAS addresses: 1128
branch_addresses: 6163
RAS match: 1783174	 RAS_mismatches: 702	 accuracy: 0.999606

 morteza stats start 

SHEET
RAS_access_cntr : 17721222
current_block_access_cntr : 42270040
table_access_cntr : 7363867
last_block_access_cntr : 42270040
last_signature_access_cntr : 7135528
miss_log_access_cntr : 2279290
prefetch_queue_access_cntr : 11960403
signature_access_cntr : 10703292
miss log count : 23


morteza stats endCPU 0 L1D next line prefetcher final stats

DRAM Statistics
 CHANNEL 0
 RQ ROW_BUFFER_HIT:     406829  ROW_BUFFER_MISS:    1028554
 DBUS_CONGESTED:    1436339
 WQ ROW_BUFFER_HIT:     264759  ROW_BUFFER_MISS:     628671  FULL:          0

 AVG_CONGESTED_CYCLE: 6

CPU 0 Branch Prediction Accuracy: 99.7114% MPKI: 0.47678 Average ROB Occupancy at Mispredict: 204.292

Branch types
NOT_BRANCH: 41740997 83.482%
BRANCH_DIRECT_JUMP: 458652 0.917304%
BRANCH_INDIRECT: 48282 0.096564%
BRANCH_CONDITIONAL: 5930880 11.8618%
BRANCH_DIRECT_CALL: 744230 1.48846%
BRANCH_INDIRECT_CALL: 166336 0.332672%
BRANCH_RETURN: 910589 1.82118%
BRANCH_OTHER: 0 0%

