Initialize SIGNATURE TABLE
ST_SET: 1
ST_WAY: 256
ST_TAG_BIT: 16
ST_TAG_MASK: ffff

Initialize PATTERN TABLE
PT_SET: 512
PT_WAY: 4
SIG_DELTA_BIT: 7
C_SIG_BIT: 4
C_DELTA_BIT: 4

Initialize PREFETCH FILTER
FILTER_SET: 1024

*** ChampSim Multicore Out-of-Order Simulator ***

Warmup Instructions: 50000000
Simulation Instructions: 50000000
Number of CPUs: 1
LLC sets: 2048
LLC ways: 16
Off-chip DRAM Size: 4096 MB Channels: 1 Width: 64-bit Data Rate: 3200 MT/s

CPU 0 runs /home/mbaradaran/ChampSim/dpc3_traces/server_017.champsimtrace.xz
CPU 0 L1D next line prefetcher
Heartbeat CPU 0 instructions: 10000001 cycles: 3622037 heartbeat IPC: 2.76088 cumulative IPC: 2.76088 (Simulation time: 0 hr 1 min 49 sec) 
Heartbeat CPU 0 instructions: 20000000 cycles: 7241756 heartbeat IPC: 2.76265 cumulative IPC: 2.76176 (Simulation time: 0 hr 3 min 44 sec) 
Heartbeat CPU 0 instructions: 30000002 cycles: 10868305 heartbeat IPC: 2.75744 cumulative IPC: 2.76032 (Simulation time: 0 hr 5 min 43 sec) 
Heartbeat CPU 0 instructions: 40000000 cycles: 14490081 heartbeat IPC: 2.76108 cumulative IPC: 2.76051 (Simulation time: 0 hr 7 min 40 sec) 
Heartbeat CPU 0 instructions: 50000001 cycles: 18122794 heartbeat IPC: 2.75276 cumulative IPC: 2.75896 (Simulation time: 0 hr 9 min 37 sec) 

Warmup complete CPU 0 instructions: 50000001 cycles: 18122794 (Simulation time: 0 hr 9 min 37 sec) 

Heartbeat CPU 0 instructions: 60000002 cycles: 36120850 heartbeat IPC: 0.555616 cumulative IPC: 0.555616 (Simulation time: 0 hr 12 min 29 sec) 
Heartbeat CPU 0 instructions: 70000002 cycles: 54289675 heartbeat IPC: 0.550393 cumulative IPC: 0.552992 (Simulation time: 0 hr 15 min 13 sec) 
Heartbeat CPU 0 instructions: 80000000 cycles: 72257590 heartbeat IPC: 0.556547 cumulative IPC: 0.554172 (Simulation time: 0 hr 18 min 5 sec) 
Heartbeat CPU 0 instructions: 90000002 cycles: 95908426 heartbeat IPC: 0.422818 cumulative IPC: 0.514234 (Simulation time: 0 hr 20 min 50 sec) 
Heartbeat CPU 0 instructions: 100000003 cycles: 116297989 heartbeat IPC: 0.490447 cumulative IPC: 0.509294 (Simulation time: 0 hr 23 min 24 sec) 
Finished CPU 0 instructions: 50000002 cycles: 98175195 cumulative IPC: 0.509294 (Simulation time: 0 hr 23 min 24 sec) 

ChampSim completed all CPUs

Region of Interest Statistics

CPU 0 cumulative IPC: 0.509294 instructions: 50000002 cycles: 98175195

SHEET
IPC : 0.509294

L1D TOTAL     ACCESS:   18572447  HIT:   16406839  MISS:    2165608
L1D LOAD      ACCESS:    7114170  HIT:    6362823  MISS:     751347
L1D RFO       ACCESS:    5537384  HIT:    4678222  MISS:     859162
L1D PREFETCH  ACCESS:    5920893  HIT:    5365794  MISS:     555099
L1D WRITEBACK ACCESS:          0  HIT:          0  MISS:          0
L1D PREFETCH  REQUESTED:    7152117  ISSUED:    6963321  USEFUL:     192672  USELESS:     362488
L1D AVERAGE MISS LATENCY: 173.24 cycles
L1D

SHEET
L1D-total_access : 18572447
L1D-total_hit : 16406839
L1D-total_miss : 2165608
L1D-load_access : 7114170
L1D-load_hit : 6362823
L1D-load_miss : 751347
L1D-rfo_access : 5537384
L1D-rfo_hit : 4678222
L1D-rfo_miss : 859162
L1D-prefetch_access : 5920893
L1D-prefetch_hit : 5365794
L1D-prefetch_miss : 555099
L1D-writeback_access : 0
L1D-writeback_hit : 0
L1D-writeback_miss : 0
L1D-prefetch_requested : 7152117
L1D-prefetch_issued : 6963321
L1D-prefetch_useful : 192672
L1D-prefetch_useless : 362488
L1D-Avg_miss_latency : 173.24
L1D-Morteza_fill_l2_prefetches : 0

L1I TOTAL     ACCESS:   12933871  HIT:   10564579  MISS:    2369292
L1I LOAD      ACCESS:    9738831  HIT:    8908269  MISS:     830562
L1I RFO       ACCESS:          0  HIT:          0  MISS:          0
L1I PREFETCH  ACCESS:    3195040  HIT:    1656310  MISS:    1538730
L1I WRITEBACK ACCESS:          0  HIT:          0  MISS:          0
L1I PREFETCH  REQUESTED:    4334900  ISSUED:    4334900  USEFUL:    1403567  USELESS:     135143
L1I AVERAGE MISS LATENCY: 11.7023 cycles
L1I

SHEET
L1I-total_access : 12933871
L1I-total_hit : 10564579
L1I-total_miss : 2369292
L1I-load_access : 9738831
L1I-load_hit : 8908269
L1I-load_miss : 830562
L1I-rfo_access : 0
L1I-rfo_hit : 0
L1I-rfo_miss : 0
L1I-prefetch_access : 3195040
L1I-prefetch_hit : 1656310
L1I-prefetch_miss : 1538730
L1I-writeback_access : 0
L1I-writeback_hit : 0
L1I-writeback_miss : 0
L1I-prefetch_requested : 4334900
L1I-prefetch_issued : 4334900
L1I-prefetch_useful : 1403567
L1I-prefetch_useless : 135143
L1I-Avg_miss_latency : 11.7023
L1I-Morteza_fill_l2_prefetches : 0

L2C TOTAL     ACCESS:    6771844  HIT:    4926157  MISS:    1845687
L2C LOAD      ACCESS:     667548  HIT:     336040  MISS:     331508
L2C RFO       ACCESS:     858748  HIT:      17281  MISS:     841467
L2C PREFETCH  ACCESS:    4122653  HIT:    3451759  MISS:     670894
L2C WRITEBACK ACCESS:    1122895  HIT:    1121077  MISS:       1818
L2C PREFETCH  REQUESTED:    3904979  ISSUED:    3901399  USEFUL:      23390  USELESS:     648095
L2C AVERAGE MISS LATENCY: 207.346 cycles
L2C

SHEET
L2C-total_access : 6771844
L2C-total_hit : 4926157
L2C-total_miss : 1845687
L2C-load_access : 667548
L2C-load_hit : 336040
L2C-load_miss : 331508
L2C-rfo_access : 858748
L2C-rfo_hit : 17281
L2C-rfo_miss : 841467
L2C-prefetch_access : 4122653
L2C-prefetch_hit : 3451759
L2C-prefetch_miss : 670894
L2C-writeback_access : 1122895
L2C-writeback_hit : 1121077
L2C-writeback_miss : 1818
L2C-prefetch_requested : 3904979
L2C-prefetch_issued : 3901399
L2C-prefetch_useful : 23390
L2C-prefetch_useless : 648095
L2C-Avg_miss_latency : 207.346
L2C-Morteza_fill_l2_prefetches : 1143910

LLC TOTAL     ACCESS:    4102658  HIT:    2534029  MISS:    1568629
LLC LOAD      ACCESS:     331347  HIT:     174061  MISS:     157286
LLC RFO       ACCESS:     841463  HIT:     123044  MISS:     718419
LLC PREFETCH  ACCESS:    1868236  HIT:    1177718  MISS:     690518
LLC WRITEBACK ACCESS:    1061612  HIT:    1059206  MISS:       2406
LLC PREFETCH  REQUESTED:          0  ISSUED:          0  USEFUL:      49822  USELESS:     640451
LLC AVERAGE MISS LATENCY: 257.738 cycles
LLC

SHEET
LLC-total_access : 4102658
LLC-total_hit : 2534029
LLC-total_miss : 1568629
LLC-load_access : 331347
LLC-load_hit : 174061
LLC-load_miss : 157286
LLC-rfo_access : 841463
LLC-rfo_hit : 123044
LLC-rfo_miss : 718419
LLC-prefetch_access : 1868236
LLC-prefetch_hit : 1177718
LLC-prefetch_miss : 690518
LLC-writeback_access : 1061612
LLC-writeback_hit : 1059206
LLC-writeback_miss : 2406
LLC-prefetch_requested : 0
LLC-prefetch_issued : 0
LLC-prefetch_useful : 49822
LLC-prefetch_useless : 640451
LLC-Avg_miss_latency : 257.738
LLC-Morteza_fill_l2_prefetches : 875561

Major fault: 0 Minor fault: 24694
num_of_hits: 7441426
num_of_misses: 8980
hit_rate: 0.998795
observed_signatures: 2913
RAS addresses: 988
branch_addresses: 5489
RAS match: 1786060	 RAS_mismatches: 547	 accuracy: 0.999694

 morteza stats start 

SHEET
RAS_access_cntr : 17750218
current_block_access_cntr : 42351954
table_access_cntr : 7445916
last_block_access_cntr : 42351954
last_signature_access_cntr : 7146452
miss_log_access_cntr : 2190589
prefetch_queue_access_cntr : 12051400
signature_access_cntr : 10719678
miss log count : 23


morteza stats endCPU 0 L1D next line prefetcher final stats

DRAM Statistics
 CHANNEL 0
 RQ ROW_BUFFER_HIT:     375679  ROW_BUFFER_MISS:    1190383
 DBUS_CONGESTED:    1496275
 WQ ROW_BUFFER_HIT:     261802  ROW_BUFFER_MISS:     614874  FULL:          0

 AVG_CONGESTED_CYCLE: 6

CPU 0 Branch Prediction Accuracy: 99.2833% MPKI: 1.20568 Average ROB Occupancy at Mispredict: 178.895

Branch types
NOT_BRANCH: 41588350 83.1767%
BRANCH_DIRECT_JUMP: 464501 0.929002%
BRANCH_INDIRECT: 45704 0.091408%
BRANCH_CONDITIONAL: 6147408 12.2948%
BRANCH_DIRECT_CALL: 675450 1.3509%
BRANCH_INDIRECT_CALL: 201532 0.403064%
BRANCH_RETURN: 876985 1.75397%
BRANCH_OTHER: 0 0%

