Initialize SIGNATURE TABLE
ST_SET: 1
ST_WAY: 256
ST_TAG_BIT: 16
ST_TAG_MASK: ffff

Initialize PATTERN TABLE
PT_SET: 512
PT_WAY: 4
SIG_DELTA_BIT: 7
C_SIG_BIT: 4
C_DELTA_BIT: 4

Initialize PREFETCH FILTER
FILTER_SET: 1024

*** ChampSim Multicore Out-of-Order Simulator ***

Warmup Instructions: 50000000
Simulation Instructions: 50000000
Number of CPUs: 1
LLC sets: 2048
LLC ways: 16
Off-chip DRAM Size: 4096 MB Channels: 1 Width: 64-bit Data Rate: 3200 MT/s

CPU 0 runs /home/mbaradaran/ChampSim/dpc3_traces/server_033.champsimtrace.xz
CPU 0 L1D next line prefetcher
Heartbeat CPU 0 instructions: 10000001 cycles: 3342164 heartbeat IPC: 2.99207 cumulative IPC: 2.99207 (Simulation time: 0 hr 1 min 49 sec) 
Heartbeat CPU 0 instructions: 20000002 cycles: 6682886 heartbeat IPC: 2.99337 cumulative IPC: 2.99272 (Simulation time: 0 hr 3 min 42 sec) 
Heartbeat CPU 0 instructions: 30000001 cycles: 10013102 heartbeat IPC: 3.00281 cumulative IPC: 2.99607 (Simulation time: 0 hr 5 min 36 sec) 
Heartbeat CPU 0 instructions: 40000000 cycles: 13352206 heartbeat IPC: 2.99482 cumulative IPC: 2.99576 (Simulation time: 0 hr 7 min 34 sec) 
Heartbeat CPU 0 instructions: 50000000 cycles: 16690752 heartbeat IPC: 2.99532 cumulative IPC: 2.99567 (Simulation time: 0 hr 9 min 30 sec) 

Warmup complete CPU 0 instructions: 50000004 cycles: 16690753 (Simulation time: 0 hr 9 min 30 sec) 

Heartbeat CPU 0 instructions: 60000000 cycles: 23748889 heartbeat IPC: 1.4168 cumulative IPC: 1.4168 (Simulation time: 0 hr 11 min 14 sec) 
Heartbeat CPU 0 instructions: 70000000 cycles: 30741428 heartbeat IPC: 1.4301 cumulative IPC: 1.42342 (Simulation time: 0 hr 13 min 2 sec) 
Heartbeat CPU 0 instructions: 80000000 cycles: 38630473 heartbeat IPC: 1.26758 cumulative IPC: 1.36738 (Simulation time: 0 hr 14 min 42 sec) 
Heartbeat CPU 0 instructions: 90000003 cycles: 45799111 heartbeat IPC: 1.39497 cumulative IPC: 1.37418 (Simulation time: 0 hr 16 min 28 sec) 
Heartbeat CPU 0 instructions: 100000000 cycles: 52942704 heartbeat IPC: 1.39986 cumulative IPC: 1.37924 (Simulation time: 0 hr 18 min 9 sec) 
Finished CPU 0 instructions: 50000000 cycles: 36251958 cumulative IPC: 1.37924 (Simulation time: 0 hr 18 min 9 sec) 

ChampSim completed all CPUs

Region of Interest Statistics

CPU 0 cumulative IPC: 1.37924 instructions: 50000000 cycles: 36251958

SHEET
IPC : 1.37924

L1D TOTAL     ACCESS:   18926617  HIT:   17444046  MISS:    1482571
L1D LOAD      ACCESS:    6475428  HIT:    5793385  MISS:     682043
L1D RFO       ACCESS:    6176009  HIT:    6026482  MISS:     149527
L1D PREFETCH  ACCESS:    6275180  HIT:    5624179  MISS:     651001
L1D WRITEBACK ACCESS:          0  HIT:          0  MISS:          0
L1D PREFETCH  REQUESTED:    6522216  ISSUED:    6415401  USEFUL:     142491  USELESS:     508517
L1D AVERAGE MISS LATENCY: 23.6747 cycles
L1D

SHEET
L1D-total_access : 18926617
L1D-total_hit : 17444046
L1D-total_miss : 1482571
L1D-load_access : 6475428
L1D-load_hit : 5793385
L1D-load_miss : 682043
L1D-rfo_access : 6176009
L1D-rfo_hit : 6026482
L1D-rfo_miss : 149527
L1D-prefetch_access : 6275180
L1D-prefetch_hit : 5624179
L1D-prefetch_miss : 651001
L1D-writeback_access : 0
L1D-writeback_hit : 0
L1D-writeback_miss : 0
L1D-prefetch_requested : 6522216
L1D-prefetch_issued : 6415401
L1D-prefetch_useful : 142491
L1D-prefetch_useless : 508517
L1D-Avg_miss_latency : 23.6747
L1D-Morteza_fill_l2_prefetches : 0

L1I TOTAL     ACCESS:   12622514  HIT:    9175810  MISS:    3446704
L1I LOAD      ACCESS:    9431258  HIT:    7874753  MISS:    1556505
L1I RFO       ACCESS:          0  HIT:          0  MISS:          0
L1I PREFETCH  ACCESS:    3191256  HIT:    1301057  MISS:    1890199
L1I WRITEBACK ACCESS:          0  HIT:          0  MISS:          0
L1I PREFETCH  REQUESTED:    4791454  ISSUED:    4791454  USEFUL:    1740069  USELESS:     150118
L1I AVERAGE MISS LATENCY: 9.81304 cycles
L1I

SHEET
L1I-total_access : 12622514
L1I-total_hit : 9175810
L1I-total_miss : 3446704
L1I-load_access : 9431258
L1I-load_hit : 7874753
L1I-load_miss : 1556505
L1I-rfo_access : 0
L1I-rfo_hit : 0
L1I-rfo_miss : 0
L1I-prefetch_access : 3191256
L1I-prefetch_hit : 1301057
L1I-prefetch_miss : 1890199
L1I-writeback_access : 0
L1I-writeback_hit : 0
L1I-writeback_miss : 0
L1I-prefetch_requested : 4791454
L1I-prefetch_issued : 4791454
L1I-prefetch_useful : 1740069
L1I-prefetch_useless : 150118
L1I-Avg_miss_latency : 9.81304
L1I-Morteza_fill_l2_prefetches : 0

L2C TOTAL     ACCESS:    7153452  HIT:    6850857  MISS:     302595
L2C LOAD      ACCESS:    1087323  HIT:     959344  MISS:     127979
L2C RFO       ACCESS:     148193  HIT:     127546  MISS:      20647
L2C PREFETCH  ACCESS:    5551285  HIT:    5400241  MISS:     151044
L2C WRITEBACK ACCESS:     366651  HIT:     363726  MISS:       2925
L2C PREFETCH  REQUESTED:    5743136  ISSUED:    5734609  USEFUL:      11285  USELESS:     139384
L2C AVERAGE MISS LATENCY: 49.4175 cycles
L2C

SHEET
L2C-total_access : 7153452
L2C-total_hit : 6850857
L2C-total_miss : 302595
L2C-load_access : 1087323
L2C-load_hit : 959344
L2C-load_miss : 127979
L2C-rfo_access : 148193
L2C-rfo_hit : 127546
L2C-rfo_miss : 20647
L2C-prefetch_access : 5551285
L2C-prefetch_hit : 5400241
L2C-prefetch_miss : 151044
L2C-writeback_access : 366651
L2C-writeback_hit : 363726
L2C-writeback_miss : 2925
L2C-prefetch_requested : 5743136
L2C-prefetch_issued : 5734609
L2C-prefetch_useful : 11285
L2C-prefetch_useless : 139384
L2C-Avg_miss_latency : 49.4175
L2C-Morteza_fill_l2_prefetches : 1935782

LLC TOTAL     ACCESS:    2115972  HIT:    2051759  MISS:      64213
LLC LOAD      ACCESS:     127944  HIT:     113236  MISS:      14708
LLC RFO       ACCESS:      20647  HIT:      17613  MISS:       3034
LLC PREFETCH  ACCESS:    1862753  HIT:    1816579  MISS:      46174
LLC WRITEBACK ACCESS:     104628  HIT:     104331  MISS:        297
LLC PREFETCH  REQUESTED:          0  ISSUED:          0  USEFUL:       7628  USELESS:      37624
LLC AVERAGE MISS LATENCY: 171.002 cycles
LLC

SHEET
LLC-total_access : 2115972
LLC-total_hit : 2051759
LLC-total_miss : 64213
LLC-load_access : 127944
LLC-load_hit : 113236
LLC-load_miss : 14708
LLC-rfo_access : 20647
LLC-rfo_hit : 17613
LLC-rfo_miss : 3034
LLC-prefetch_access : 1862753
LLC-prefetch_hit : 1816579
LLC-prefetch_miss : 46174
LLC-writeback_access : 104628
LLC-writeback_hit : 104331
LLC-writeback_miss : 297
LLC-prefetch_requested : 0
LLC-prefetch_issued : 0
LLC-prefetch_useful : 7628
LLC-prefetch_useless : 37624
LLC-Avg_miss_latency : 171.002
LLC-Morteza_fill_l2_prefetches : 1686315

Major fault: 0 Minor fault: 2482
num_of_hits: 9928148
num_of_misses: 438674
hit_rate: 0.957685
observed_signatures: 3788
RAS addresses: 1132
branch_addresses: 6595
RAS match: 2519076	 RAS_mismatches: 658	 accuracy: 0.999739

 morteza stats start 

SHEET
RAS_access_cntr : 25194377
current_block_access_cntr : 42185294
table_access_cntr : 10147485
last_block_access_cntr : 42185294
last_signature_access_cntr : 10078950
miss_log_access_cntr : 4251026
prefetch_queue_access_cntr : 14343412
signature_access_cntr : 15118425
miss log count : 28


morteza stats endCPU 0 L1D next line prefetcher final stats

DRAM Statistics
 CHANNEL 0
 RQ ROW_BUFFER_HIT:       9496  ROW_BUFFER_MISS:      54416
 DBUS_CONGESTED:      26113
 WQ ROW_BUFFER_HIT:       4167  ROW_BUFFER_MISS:      17083  FULL:          0

 AVG_CONGESTED_CYCLE: 5

CPU 0 Branch Prediction Accuracy: 99.9029% MPKI: 0.19006 Average ROB Occupancy at Mispredict: 174.421

Branch types
NOT_BRANCH: 40217101 80.4342%
BRANCH_DIRECT_JUMP: 774599 1.5492%
BRANCH_INDIRECT: 108806 0.217612%
BRANCH_CONDITIONAL: 6379330 12.7587%
BRANCH_DIRECT_CALL: 1048808 2.09762%
BRANCH_INDIRECT_CALL: 211109 0.422218%
BRANCH_RETURN: 1259925 2.51985%
BRANCH_OTHER: 0 0%

