Initialize SIGNATURE TABLE
ST_SET: 1
ST_WAY: 256
ST_TAG_BIT: 16
ST_TAG_MASK: ffff

Initialize PATTERN TABLE
PT_SET: 512
PT_WAY: 4
SIG_DELTA_BIT: 7
C_SIG_BIT: 4
C_DELTA_BIT: 4

Initialize PREFETCH FILTER
FILTER_SET: 1024

*** ChampSim Multicore Out-of-Order Simulator ***

Warmup Instructions: 50000000
Simulation Instructions: 50000000
Number of CPUs: 1
LLC sets: 2048
LLC ways: 16
Off-chip DRAM Size: 4096 MB Channels: 1 Width: 64-bit Data Rate: 3200 MT/s

CPU 0 runs /home/mbaradaran/ChampSim/dpc3_traces/client_003.champsimtrace.xz
CPU 0 L1I next line prefetcher
CPU 0 L1D next line prefetcher
Heartbeat CPU 0 instructions: 10000000 cycles: 3478701 heartbeat IPC: 2.87464 cumulative IPC: 2.87464 (Simulation time: 0 hr 1 min 33 sec) 
Heartbeat CPU 0 instructions: 20000002 cycles: 6933444 heartbeat IPC: 2.89457 cumulative IPC: 2.88457 (Simulation time: 0 hr 3 min 15 sec) 
Heartbeat CPU 0 instructions: 30000003 cycles: 10494635 heartbeat IPC: 2.80805 cumulative IPC: 2.8586 (Simulation time: 0 hr 4 min 58 sec) 
Heartbeat CPU 0 instructions: 40000001 cycles: 14111151 heartbeat IPC: 2.76509 cumulative IPC: 2.83464 (Simulation time: 0 hr 6 min 48 sec) 
Heartbeat CPU 0 instructions: 50000003 cycles: 17656422 heartbeat IPC: 2.82066 cumulative IPC: 2.83183 (Simulation time: 0 hr 8 min 33 sec) 

Warmup complete CPU 0 instructions: 50000003 cycles: 17656422 (Simulation time: 0 hr 8 min 33 sec) 

Heartbeat CPU 0 instructions: 60000002 cycles: 24115000 heartbeat IPC: 1.54833 cumulative IPC: 1.54833 (Simulation time: 0 hr 10 min 0 sec) 
Heartbeat CPU 0 instructions: 70000001 cycles: 30322678 heartbeat IPC: 1.61091 cumulative IPC: 1.579 (Simulation time: 0 hr 11 min 33 sec) 
Heartbeat CPU 0 instructions: 80000001 cycles: 37442891 heartbeat IPC: 1.40445 cumulative IPC: 1.51619 (Simulation time: 0 hr 13 min 1 sec) 
Heartbeat CPU 0 instructions: 90000000 cycles: 46519047 heartbeat IPC: 1.10179 cumulative IPC: 1.38588 (Simulation time: 0 hr 14 min 20 sec) 
Heartbeat CPU 0 instructions: 100000003 cycles: 57386178 heartbeat IPC: 0.920206 cumulative IPC: 1.2585 (Simulation time: 0 hr 15 min 55 sec) 
Finished CPU 0 instructions: 50000000 cycles: 39729756 cumulative IPC: 1.2585 (Simulation time: 0 hr 15 min 55 sec) 

ChampSim completed all CPUs

Region of Interest Statistics

CPU 0 cumulative IPC: 1.2585 instructions: 50000000 cycles: 39729756

SHEET
IPC : 1.2585

L1D TOTAL     ACCESS:   17752273  HIT:   17256135  MISS:     496138
L1D LOAD      ACCESS:    6094877  HIT:    5968765  MISS:     126112
L1D RFO       ACCESS:    5952409  HIT:    5718070  MISS:     234339
L1D PREFETCH  ACCESS:    5704987  HIT:    5569300  MISS:     135687
L1D WRITEBACK ACCESS:          0  HIT:          0  MISS:          0
L1D PREFETCH  REQUESTED:    6136611  ISSUED:    5994533  USEFUL:      67644  USELESS:      68090
L1D AVERAGE MISS LATENCY: 122.047 cycles
L1D

SHEET
L1D-total_access : 17752273
L1D-total_hit : 17256135
L1D-total_miss : 496138
L1D-load_access : 6094877
L1D-load_hit : 5968765
L1D-load_miss : 126112
L1D-rfo_access : 5952409
L1D-rfo_hit : 5718070
L1D-rfo_miss : 234339
L1D-prefetch_access : 5704987
L1D-prefetch_hit : 5569300
L1D-prefetch_miss : 135687
L1D-writeback_access : 0
L1D-writeback_hit : 0
L1D-writeback_miss : 0
L1D-prefetch_requested : 6136611
L1D-prefetch_issued : 5994533
L1D-prefetch_useful : 67644
L1D-prefetch_useless : 68090
L1D-Avg_miss_latency : 122.047
L1D-Morteza_fill_l2_prefetches : 0

L1I TOTAL     ACCESS:   11256912  HIT:   10444850  MISS:     812062
L1I LOAD      ACCESS:    9449753  HIT:    9228299  MISS:     221454
L1I RFO       ACCESS:          0  HIT:          0  MISS:          0
L1I PREFETCH  ACCESS:    1807159  HIT:    1216551  MISS:     590608
L1I WRITEBACK ACCESS:          0  HIT:          0  MISS:          0
L1I PREFETCH  REQUESTED:    1927348  ISSUED:    1927348  USEFUL:     333275  USELESS:     257367
L1I AVERAGE MISS LATENCY: 21.4504 cycles
L1I

SHEET
L1I-total_access : 11256912
L1I-total_hit : 10444850
L1I-total_miss : 812062
L1I-load_access : 9449753
L1I-load_hit : 9228299
L1I-load_miss : 221454
L1I-rfo_access : 0
L1I-rfo_hit : 0
L1I-rfo_miss : 0
L1I-prefetch_access : 1807159
L1I-prefetch_hit : 1216551
L1I-prefetch_miss : 590608
L1I-writeback_access : 0
L1I-writeback_hit : 0
L1I-writeback_miss : 0
L1I-prefetch_requested : 1927348
L1I-prefetch_issued : 1927348
L1I-prefetch_useful : 333275
L1I-prefetch_useless : 257367
L1I-Avg_miss_latency : 21.4504
L1I-Morteza_fill_l2_prefetches : 0

L2C TOTAL     ACCESS:    1970925  HIT:    1554561  MISS:     416364
L2C LOAD      ACCESS:     285678  HIT:     231414  MISS:      54264
L2C RFO       ACCESS:     232268  HIT:      24727  MISS:     207541
L2C PREFETCH  ACCESS:    1183649  HIT:    1030201  MISS:     153448
L2C WRITEBACK ACCESS:     269330  HIT:     268219  MISS:       1111
L2C PREFETCH  REQUESTED:    1519119  ISSUED:    1518850  USEFUL:      12377  USELESS:     141590
L2C AVERAGE MISS LATENCY: 161.896 cycles
L2C

SHEET
L2C-total_access : 1970925
L2C-total_hit : 1554561
L2C-total_miss : 416364
L2C-load_access : 285678
L2C-load_hit : 231414
L2C-load_miss : 54264
L2C-rfo_access : 232268
L2C-rfo_hit : 24727
L2C-rfo_miss : 207541
L2C-prefetch_access : 1183649
L2C-prefetch_hit : 1030201
L2C-prefetch_miss : 153448
L2C-writeback_access : 269330
L2C-writeback_hit : 268219
L2C-writeback_miss : 1111
L2C-prefetch_requested : 1519119
L2C-prefetch_issued : 1518850
L2C-prefetch_useful : 12377
L2C-prefetch_useless : 141590
L2C-Avg_miss_latency : 161.896
L2C-Morteza_fill_l2_prefetches : 396452

LLC TOTAL     ACCESS:     998914  HIT:     706897  MISS:     292017
LLC LOAD      ACCESS:      54165  HIT:      39835  MISS:      14330
LLC RFO       ACCESS:     207532  HIT:      34855  MISS:     172677
LLC PREFETCH  ACCESS:     511951  HIT:     407297  MISS:     104654
LLC WRITEBACK ACCESS:     225266  HIT:     224910  MISS:        356
LLC PREFETCH  REQUESTED:          0  ISSUED:          0  USEFUL:      11044  USELESS:      94573
LLC AVERAGE MISS LATENCY: 227.388 cycles
LLC

SHEET
LLC-total_access : 998914
LLC-total_hit : 706897
LLC-total_miss : 292017
LLC-load_access : 54165
LLC-load_hit : 39835
LLC-load_miss : 14330
LLC-rfo_access : 207532
LLC-rfo_hit : 34855
LLC-rfo_miss : 172677
LLC-prefetch_access : 511951
LLC-prefetch_hit : 407297
LLC-prefetch_miss : 104654
LLC-writeback_access : 225266
LLC-writeback_hit : 224910
LLC-writeback_miss : 356
LLC-prefetch_requested : 0
LLC-prefetch_issued : 0
LLC-prefetch_useful : 11044
LLC-prefetch_useless : 94573
LLC-Avg_miss_latency : 227.388
LLC-Morteza_fill_l2_prefetches : 329787

Major fault: 0 Minor fault: 5053
I-Shadow cache 408 bytes
Touched + WorthPF tables 3072 bytes 
MMA filter 174 bytes 
FNL filter 272 bytes 
TOTAL PREFETCHER STORAGE SIZE: 13014 bytes
CPU 0 L1I next line prefetcher final stats

 morteza stats start 

SHEET
fnlfilter_access_cntr : 13601448
iShadow_access_cntr : 42474728
missahead_access_cntr : 1979390
mmafilter_access_cntr : 3446392
touched_access_cntr : 9409236
worthpf_access_cntr : 13990361


morteza stats endCPU 0 L1D next line prefetcher final stats

DRAM Statistics
 CHANNEL 0
 RQ ROW_BUFFER_HIT:     103241  ROW_BUFFER_MISS:     188412
 DBUS_CONGESTED:     265765
 WQ ROW_BUFFER_HIT:      58448  ROW_BUFFER_MISS:     121400  FULL:          0

 AVG_CONGESTED_CYCLE: 6

CPU 0 Branch Prediction Accuracy: 98.6631% MPKI: 2.66884 Average ROB Occupancy at Mispredict: 71.5848

Branch types
NOT_BRANCH: 40018777 80.0376%
BRANCH_DIRECT_JUMP: 370861 0.741722%
BRANCH_INDIRECT: 83253 0.166506%
BRANCH_CONDITIONAL: 7877436 15.7549%
BRANCH_DIRECT_CALL: 722315 1.44463%
BRANCH_INDIRECT_CALL: 101901 0.203802%
BRANCH_RETURN: 825355 1.65071%
BRANCH_OTHER: 0 0%

