Initialize SIGNATURE TABLE
ST_SET: 1
ST_WAY: 256
ST_TAG_BIT: 16
ST_TAG_MASK: ffff

Initialize PATTERN TABLE
PT_SET: 512
PT_WAY: 4
SIG_DELTA_BIT: 7
C_SIG_BIT: 4
C_DELTA_BIT: 4

Initialize PREFETCH FILTER
FILTER_SET: 1024

*** ChampSim Multicore Out-of-Order Simulator ***

Warmup Instructions: 50000000
Simulation Instructions: 50000000
Number of CPUs: 1
LLC sets: 2048
LLC ways: 16
Off-chip DRAM Size: 4096 MB Channels: 1 Width: 64-bit Data Rate: 3200 MT/s

CPU 0 runs /home/mbaradaran/ChampSim/dpc3_traces/server_015.champsimtrace.xz
CPU 0 L1I next line prefetcher
CPU 0 L1D next line prefetcher
Heartbeat CPU 0 instructions: 10000002 cycles: 3519397 heartbeat IPC: 2.8414 cumulative IPC: 2.8414 (Simulation time: 0 hr 1 min 44 sec) 
Heartbeat CPU 0 instructions: 20000001 cycles: 7107106 heartbeat IPC: 2.78729 cumulative IPC: 2.81409 (Simulation time: 0 hr 3 min 31 sec) 
Heartbeat CPU 0 instructions: 30000001 cycles: 10646100 heartbeat IPC: 2.82566 cumulative IPC: 2.81793 (Simulation time: 0 hr 5 min 22 sec) 
Heartbeat CPU 0 instructions: 40000002 cycles: 14194141 heartbeat IPC: 2.81846 cumulative IPC: 2.81806 (Simulation time: 0 hr 7 min 12 sec) 
Heartbeat CPU 0 instructions: 50000002 cycles: 17742401 heartbeat IPC: 2.81828 cumulative IPC: 2.81811 (Simulation time: 0 hr 9 min 4 sec) 

Warmup complete CPU 0 instructions: 50000002 cycles: 17742401 (Simulation time: 0 hr 9 min 4 sec) 

Heartbeat CPU 0 instructions: 60000002 cycles: 24044977 heartbeat IPC: 1.58665 cumulative IPC: 1.58665 (Simulation time: 0 hr 10 min 54 sec) 
Heartbeat CPU 0 instructions: 70000003 cycles: 30353838 heartbeat IPC: 1.58507 cumulative IPC: 1.58586 (Simulation time: 0 hr 12 min 46 sec) 
Heartbeat CPU 0 instructions: 80000000 cycles: 36662566 heartbeat IPC: 1.58511 cumulative IPC: 1.58561 (Simulation time: 0 hr 14 min 40 sec) 
Heartbeat CPU 0 instructions: 90000000 cycles: 42974153 heartbeat IPC: 1.58439 cumulative IPC: 1.5853 (Simulation time: 0 hr 16 min 31 sec) 
Heartbeat CPU 0 instructions: 100000002 cycles: 49283026 heartbeat IPC: 1.58507 cumulative IPC: 1.58526 (Simulation time: 0 hr 18 min 24 sec) 
Finished CPU 0 instructions: 50000000 cycles: 31540625 cumulative IPC: 1.58526 (Simulation time: 0 hr 18 min 24 sec) 

ChampSim completed all CPUs

Region of Interest Statistics

CPU 0 cumulative IPC: 1.58526 instructions: 50000000 cycles: 31540625

SHEET
IPC : 1.58526

L1D TOTAL     ACCESS:   21826795  HIT:   21810028  MISS:      16767
L1D LOAD      ACCESS:    6690446  HIT:    6689916  MISS:        530
L1D RFO       ACCESS:    8561398  HIT:    8561302  MISS:         96
L1D PREFETCH  ACCESS:    6574951  HIT:    6558810  MISS:      16141
L1D WRITEBACK ACCESS:          0  HIT:          0  MISS:          0
L1D PREFETCH  REQUESTED:    6690512  ISSUED:    6579506  USEFUL:         83  USELESS:      16055
L1D AVERAGE MISS LATENCY: 16.6557 cycles
L1D

SHEET
L1D-total_access : 21826795
L1D-total_hit : 21810028
L1D-total_miss : 16767
L1D-load_access : 6690446
L1D-load_hit : 6689916
L1D-load_miss : 530
L1D-rfo_access : 8561398
L1D-rfo_hit : 8561302
L1D-rfo_miss : 96
L1D-prefetch_access : 6574951
L1D-prefetch_hit : 6558810
L1D-prefetch_miss : 16141
L1D-writeback_access : 0
L1D-writeback_hit : 0
L1D-writeback_miss : 0
L1D-prefetch_requested : 6690512
L1D-prefetch_issued : 6579506
L1D-prefetch_useful : 83
L1D-prefetch_useless : 16055
L1D-Avg_miss_latency : 16.6557
L1D-Morteza_fill_l2_prefetches : 0

L1I TOTAL     ACCESS:   15771856  HIT:   13411468  MISS:    2360388
L1I LOAD      ACCESS:    9766018  HIT:    9732429  MISS:      33589
L1I RFO       ACCESS:          0  HIT:          0  MISS:          0
L1I PREFETCH  ACCESS:    6005838  HIT:    3679039  MISS:    2326799
L1I WRITEBACK ACCESS:          0  HIT:          0  MISS:          0
L1I PREFETCH  REQUESTED:    6237098  ISSUED:    6237098  USEFUL:    1987427  USELESS:     339356
L1I AVERAGE MISS LATENCY: 14.1914 cycles
L1I

SHEET
L1I-total_access : 15771856
L1I-total_hit : 13411468
L1I-total_miss : 2360388
L1I-load_access : 9766018
L1I-load_hit : 9732429
L1I-load_miss : 33589
L1I-rfo_access : 0
L1I-rfo_hit : 0
L1I-rfo_miss : 0
L1I-prefetch_access : 6005838
L1I-prefetch_hit : 3679039
L1I-prefetch_miss : 2326799
L1I-writeback_access : 0
L1I-writeback_hit : 0
L1I-writeback_miss : 0
L1I-prefetch_requested : 6237098
L1I-prefetch_issued : 6237098
L1I-prefetch_useful : 1987427
L1I-prefetch_useless : 339356
L1I-Avg_miss_latency : 14.1914
L1I-Morteza_fill_l2_prefetches : 0

L2C TOTAL     ACCESS:    3115861  HIT:    3115485  MISS:        376
L2C LOAD      ACCESS:       5195  HIT:       5106  MISS:         89
L2C RFO       ACCESS:         95  HIT:         93  MISS:          2
L2C PREFETCH  ACCESS:    3110222  HIT:    3109938  MISS:        284
L2C WRITEBACK ACCESS:        349  HIT:        348  MISS:          1
L2C PREFETCH  REQUESTED:    1844109  ISSUED:    1844056  USEFUL:        124  USELESS:        172
L2C AVERAGE MISS LATENCY: 124.649 cycles
L2C

SHEET
L2C-total_access : 3115861
L2C-total_hit : 3115485
L2C-total_miss : 376
L2C-load_access : 5195
L2C-load_hit : 5106
L2C-load_miss : 89
L2C-rfo_access : 95
L2C-rfo_hit : 93
L2C-rfo_miss : 2
L2C-prefetch_access : 3110222
L2C-prefetch_hit : 3109938
L2C-prefetch_miss : 284
L2C-writeback_access : 349
L2C-writeback_hit : 348
L2C-writeback_miss : 1
L2C-prefetch_requested : 1844109
L2C-prefetch_issued : 1844056
L2C-prefetch_useful : 124
L2C-prefetch_useless : 172
L2C-Avg_miss_latency : 124.649
L2C-Morteza_fill_l2_prefetches : 778975

LLC TOTAL     ACCESS:     395803  HIT:     394847  MISS:        956
LLC LOAD      ACCESS:         89  HIT:         75  MISS:         14
LLC RFO       ACCESS:          2  HIT:          0  MISS:          2
LLC PREFETCH  ACCESS:     395600  HIT:     394667  MISS:        933
LLC WRITEBACK ACCESS:        112  HIT:        105  MISS:          7
LLC PREFETCH  REQUESTED:          0  ISSUED:          0  USEFUL:         14  USELESS:        222
LLC AVERAGE MISS LATENCY: 668.09 cycles
LLC

SHEET
LLC-total_access : 395803
LLC-total_hit : 394847
LLC-total_miss : 956
LLC-load_access : 89
LLC-load_hit : 75
LLC-load_miss : 14
LLC-rfo_access : 2
LLC-rfo_hit : 0
LLC-rfo_miss : 2
LLC-prefetch_access : 395601
LLC-prefetch_hit : 394668
LLC-prefetch_miss : 933
LLC-writeback_access : 112
LLC-writeback_hit : 105
LLC-writeback_miss : 7
LLC-prefetch_requested : 0
LLC-prefetch_issued : 0
LLC-prefetch_useful : 14
LLC-prefetch_useless : 222
LLC-Avg_miss_latency : 668.09
LLC-Morteza_fill_l2_prefetches : 394560

Major fault: 0 Minor fault: 1895
I-Shadow cache 408 bytes
Touched + WorthPF tables 3072 bytes 
MMA filter 174 bytes 
FNL filter 272 bytes 
TOTAL PREFETCHER STORAGE SIZE: 13014 bytes
CPU 0 L1I next line prefetcher final stats

 morteza stats start 

SHEET
fnlfilter_access_cntr : 32822273
iShadow_access_cntr : 42796274
missahead_access_cntr : 8629735
mmafilter_access_cntr : 15641174
touched_access_cntr : 24540690
worthpf_access_cntr : 30470439


morteza stats endCPU 0 L1D next line prefetcher final stats

DRAM Statistics
 CHANNEL 0
 RQ ROW_BUFFER_HIT:        224  ROW_BUFFER_MISS:        725
 DBUS_CONGESTED:        685
 WQ ROW_BUFFER_HIT:        101  ROW_BUFFER_MISS:        601  FULL:          0

 AVG_CONGESTED_CYCLE: 6

CPU 0 Branch Prediction Accuracy: 99.9085% MPKI: 0.15428 Average ROB Occupancy at Mispredict: 295.094

Branch types
NOT_BRANCH: 41573146 83.1463%
BRANCH_DIRECT_JUMP: 436254 0.872508%
BRANCH_INDIRECT: 0 0%
BRANCH_CONDITIONAL: 5395897 10.7918%
BRANCH_DIRECT_CALL: 1173391 2.34678%
BRANCH_INDIRECT_CALL: 123912 0.247824%
BRANCH_RETURN: 1297311 2.59462%
BRANCH_OTHER: 0 0%

