Initialize SIGNATURE TABLE
ST_SET: 1
ST_WAY: 256
ST_TAG_BIT: 16
ST_TAG_MASK: ffff

Initialize PATTERN TABLE
PT_SET: 512
PT_WAY: 4
SIG_DELTA_BIT: 7
C_SIG_BIT: 4
C_DELTA_BIT: 4

Initialize PREFETCH FILTER
FILTER_SET: 1024

*** ChampSim Multicore Out-of-Order Simulator ***

Warmup Instructions: 50000000
Simulation Instructions: 50000000
Number of CPUs: 1
LLC sets: 2048
LLC ways: 16
Off-chip DRAM Size: 4096 MB Channels: 1 Width: 64-bit Data Rate: 3200 MT/s

CPU 0 runs /home/mbaradaran/ChampSim/dpc3_traces/server_034.champsimtrace.xz
CPU 0 L1I next line prefetcher
CPU 0 L1D next line prefetcher
Heartbeat CPU 0 instructions: 10000000 cycles: 3331169 heartbeat IPC: 3.00195 cumulative IPC: 3.00195 (Simulation time: 0 hr 1 min 52 sec) 
Heartbeat CPU 0 instructions: 20000002 cycles: 6654912 heartbeat IPC: 3.00866 cumulative IPC: 3.0053 (Simulation time: 0 hr 3 min 44 sec) 
Heartbeat CPU 0 instructions: 30000003 cycles: 9987952 heartbeat IPC: 3.00026 cumulative IPC: 3.00362 (Simulation time: 0 hr 5 min 33 sec) 
Heartbeat CPU 0 instructions: 40000001 cycles: 13319045 heartbeat IPC: 3.00202 cumulative IPC: 3.00322 (Simulation time: 0 hr 7 min 19 sec) 
Heartbeat CPU 0 instructions: 50000000 cycles: 16649338 heartbeat IPC: 3.00274 cumulative IPC: 3.00312 (Simulation time: 0 hr 9 min 6 sec) 

Warmup complete CPU 0 instructions: 50000002 cycles: 16649339 (Simulation time: 0 hr 9 min 6 sec) 

Heartbeat CPU 0 instructions: 60000002 cycles: 22667446 heartbeat IPC: 1.66165 cumulative IPC: 1.66165 (Simulation time: 0 hr 10 min 49 sec) 
Heartbeat CPU 0 instructions: 70000003 cycles: 29125842 heartbeat IPC: 1.54837 cumulative IPC: 1.60301 (Simulation time: 0 hr 12 min 46 sec) 
Heartbeat CPU 0 instructions: 80000002 cycles: 35249128 heartbeat IPC: 1.63311 cumulative IPC: 1.61292 (Simulation time: 0 hr 14 min 39 sec) 
Heartbeat CPU 0 instructions: 90000002 cycles: 41367068 heartbeat IPC: 1.63454 cumulative IPC: 1.61827 (Simulation time: 0 hr 16 min 34 sec) 
Heartbeat CPU 0 instructions: 100000002 cycles: 47457932 heartbeat IPC: 1.6418 cumulative IPC: 1.62292 (Simulation time: 0 hr 18 min 24 sec) 
Finished CPU 0 instructions: 50000000 cycles: 30808593 cumulative IPC: 1.62292 (Simulation time: 0 hr 18 min 24 sec) 

ChampSim completed all CPUs

Region of Interest Statistics

CPU 0 cumulative IPC: 1.62292 instructions: 50000000 cycles: 30808593

SHEET
IPC : 1.62292

L1D TOTAL     ACCESS:   18285251  HIT:   16861108  MISS:    1424143
L1D LOAD      ACCESS:    6155654  HIT:    5499626  MISS:     656028
L1D RFO       ACCESS:    6153473  HIT:    6010671  MISS:     142802
L1D PREFETCH  ACCESS:    5976124  HIT:    5350811  MISS:     625313
L1D WRITEBACK ACCESS:          0  HIT:          0  MISS:          0
L1D PREFETCH  REQUESTED:    6191430  ISSUED:    6105776  USEFUL:     140860  USELESS:     484422
L1D AVERAGE MISS LATENCY: 18.6251 cycles
L1D

SHEET
L1D-total_access : 18285251
L1D-total_hit : 16861108
L1D-total_miss : 1424143
L1D-load_access : 6155654
L1D-load_hit : 5499626
L1D-load_miss : 656028
L1D-rfo_access : 6153473
L1D-rfo_hit : 6010671
L1D-rfo_miss : 142802
L1D-prefetch_access : 5976124
L1D-prefetch_hit : 5350811
L1D-prefetch_miss : 625313
L1D-writeback_access : 0
L1D-writeback_hit : 0
L1D-writeback_miss : 0
L1D-prefetch_requested : 6191430
L1D-prefetch_issued : 6105776
L1D-prefetch_useful : 140860
L1D-prefetch_useless : 484422
L1D-Avg_miss_latency : 18.6251
L1D-Morteza_fill_l2_prefetches : 0

L1I TOTAL     ACCESS:   15965216  HIT:   11075961  MISS:    4889255
L1I LOAD      ACCESS:    9643650  HIT:    9431756  MISS:     211894
L1I RFO       ACCESS:          0  HIT:          0  MISS:          0
L1I PREFETCH  ACCESS:    6321566  HIT:    1644205  MISS:    4677361
L1I WRITEBACK ACCESS:          0  HIT:          0  MISS:          0
L1I PREFETCH  REQUESTED:    6580447  ISSUED:    6577234  USEFUL:    3250750  USELESS:    1426578
L1I AVERAGE MISS LATENCY: 15.6616 cycles
L1I

SHEET
L1I-total_access : 15965216
L1I-total_hit : 11075961
L1I-total_miss : 4889255
L1I-load_access : 9643650
L1I-load_hit : 9431756
L1I-load_miss : 211894
L1I-rfo_access : 0
L1I-rfo_hit : 0
L1I-rfo_miss : 0
L1I-prefetch_access : 6321566
L1I-prefetch_hit : 1644205
L1I-prefetch_miss : 4677361
L1I-writeback_access : 0
L1I-writeback_hit : 0
L1I-writeback_miss : 0
L1I-prefetch_requested : 6580447
L1I-prefetch_issued : 6577234
L1I-prefetch_useful : 3250750
L1I-prefetch_useless : 1426578
L1I-Avg_miss_latency : 15.6616
L1I-Morteza_fill_l2_prefetches : 0

L2C TOTAL     ACCESS:    8653410  HIT:    8383140  MISS:     270270
L2C LOAD      ACCESS:     797918  HIT:     729595  MISS:      68323
L2C RFO       ACCESS:     140991  HIT:     123837  MISS:      17154
L2C PREFETCH  ACCESS:    7363711  HIT:    7183489  MISS:     180222
L2C WRITEBACK ACCESS:     350790  HIT:     346219  MISS:       4571
L2C PREFETCH  REQUESTED:    9420495  ISSUED:    9384760  USEFUL:       5555  USELESS:     173969
L2C AVERAGE MISS LATENCY: 37.0429 cycles
L2C

SHEET
L2C-total_access : 8653410
L2C-total_hit : 8383140
L2C-total_miss : 270270
L2C-load_access : 797918
L2C-load_hit : 729595
L2C-load_miss : 68323
L2C-rfo_access : 140991
L2C-rfo_hit : 123837
L2C-rfo_miss : 17154
L2C-prefetch_access : 7363711
L2C-prefetch_hit : 7183489
L2C-prefetch_miss : 180222
L2C-writeback_access : 350790
L2C-writeback_hit : 346219
L2C-writeback_miss : 4571
L2C-prefetch_requested : 9420495
L2C-prefetch_issued : 9384760
L2C-prefetch_useful : 5555
L2C-prefetch_useless : 173969
L2C-Avg_miss_latency : 37.0429
L2C-Morteza_fill_l2_prefetches : 2075575

LLC TOTAL     ACCESS:    2389776  HIT:    2373635  MISS:      16141
LLC LOAD      ACCESS:      68221  HIT:      65119  MISS:       3102
LLC RFO       ACCESS:      17153  HIT:      16892  MISS:        261
LLC PREFETCH  ACCESS:    2248518  HIT:    2235814  MISS:      12704
LLC WRITEBACK ACCESS:      55884  HIT:      55810  MISS:         74
LLC PREFETCH  REQUESTED:          0  ISSUED:          0  USEFUL:       3299  USELESS:       6445
LLC AVERAGE MISS LATENCY: 160.5 cycles
LLC

SHEET
LLC-total_access : 2389776
LLC-total_hit : 2373635
LLC-total_miss : 16141
LLC-load_access : 68221
LLC-load_hit : 65119
LLC-load_miss : 3102
LLC-rfo_access : 17153
LLC-rfo_hit : 16892
LLC-rfo_miss : 261
LLC-prefetch_access : 2248519
LLC-prefetch_hit : 2235815
LLC-prefetch_miss : 12704
LLC-writeback_access : 55884
LLC-writeback_hit : 55810
LLC-writeback_miss : 74
LLC-prefetch_requested : 0
LLC-prefetch_issued : 0
LLC-prefetch_useful : 3299
LLC-prefetch_useless : 6445
LLC-Avg_miss_latency : 160.5
LLC-Morteza_fill_l2_prefetches : 2074678

Major fault: 0 Minor fault: 1176
I-Shadow cache 408 bytes
Touched + WorthPF tables 3072 bytes 
MMA filter 174 bytes 
FNL filter 272 bytes 
TOTAL PREFETCHER STORAGE SIZE: 13014 bytes
CPU 0 L1I next line prefetcher final stats

 morteza stats start 

SHEET
fnlfilter_access_cntr : 36682677
iShadow_access_cntr : 42789800
missahead_access_cntr : 6007916
mmafilter_access_cntr : 14150465
touched_access_cntr : 22849482
worthpf_access_cntr : 35302783


morteza stats endCPU 0 L1D next line prefetcher final stats

DRAM Statistics
 CHANNEL 0
 RQ ROW_BUFFER_HIT:       3865  ROW_BUFFER_MISS:      12197
 DBUS_CONGESTED:       7097
 WQ ROW_BUFFER_HIT:       1232  ROW_BUFFER_MISS:       3748  FULL:          0

 AVG_CONGESTED_CYCLE: 5

CPU 0 Branch Prediction Accuracy: 99.926% MPKI: 0.14472 Average ROB Occupancy at Mispredict: 239.48

Branch types
NOT_BRANCH: 40220929 80.4419%
BRANCH_DIRECT_JUMP: 771319 1.54264%
BRANCH_INDIRECT: 108663 0.217326%
BRANCH_CONDITIONAL: 6375026 12.7501%
BRANCH_DIRECT_CALL: 1049633 2.09927%
BRANCH_INDIRECT_CALL: 212281 0.424562%
BRANCH_RETURN: 1261922 2.52384%
BRANCH_OTHER: 0 0%

