Initialize SIGNATURE TABLE
ST_SET: 1
ST_WAY: 256
ST_TAG_BIT: 16
ST_TAG_MASK: ffff

Initialize PATTERN TABLE
PT_SET: 512
PT_WAY: 4
SIG_DELTA_BIT: 7
C_SIG_BIT: 4
C_DELTA_BIT: 4

Initialize PREFETCH FILTER
FILTER_SET: 1024

*** ChampSim Multicore Out-of-Order Simulator ***

Warmup Instructions: 50000000
Simulation Instructions: 50000000
Number of CPUs: 1
LLC sets: 2048
LLC ways: 16
Off-chip DRAM Size: 4096 MB Channels: 1 Width: 64-bit Data Rate: 3200 MT/s

CPU 0 runs /home/mbaradaran/ChampSim/dpc3_traces/server_009.champsimtrace.xz
CPU 0 L1I next line prefetcher
CPU 0 L1D next line prefetcher
Heartbeat CPU 0 instructions: 10000003 cycles: 3202959 heartbeat IPC: 3.12211 cumulative IPC: 3.12211 (Simulation time: 0 hr 1 min 43 sec) 
Heartbeat CPU 0 instructions: 20000001 cycles: 6398780 heartbeat IPC: 3.12909 cumulative IPC: 3.1256 (Simulation time: 0 hr 3 min 26 sec) 
Heartbeat CPU 0 instructions: 30000002 cycles: 9608518 heartbeat IPC: 3.11552 cumulative IPC: 3.12223 (Simulation time: 0 hr 5 min 4 sec) 
Heartbeat CPU 0 instructions: 40000003 cycles: 12815297 heartbeat IPC: 3.11839 cumulative IPC: 3.12127 (Simulation time: 0 hr 6 min 45 sec) 
Heartbeat CPU 0 instructions: 50000000 cycles: 16078624 heartbeat IPC: 3.06436 cumulative IPC: 3.10972 (Simulation time: 0 hr 8 min 31 sec) 

Warmup complete CPU 0 instructions: 50000004 cycles: 16078625 (Simulation time: 0 hr 8 min 31 sec) 

Heartbeat CPU 0 instructions: 60000002 cycles: 32357626 heartbeat IPC: 0.614288 cumulative IPC: 0.614288 (Simulation time: 0 hr 10 min 40 sec) 
Heartbeat CPU 0 instructions: 70000003 cycles: 53627354 heartbeat IPC: 0.470152 cumulative IPC: 0.532641 (Simulation time: 0 hr 13 min 25 sec) 
Heartbeat CPU 0 instructions: 80000000 cycles: 61686192 heartbeat IPC: 1.24087 cumulative IPC: 0.657785 (Simulation time: 0 hr 14 min 53 sec) 
Heartbeat CPU 0 instructions: 90000001 cycles: 69843051 heartbeat IPC: 1.22596 cumulative IPC: 0.743986 (Simulation time: 0 hr 16 min 26 sec) 
Heartbeat CPU 0 instructions: 100000003 cycles: 77929685 heartbeat IPC: 1.23661 cumulative IPC: 0.808394 (Simulation time: 0 hr 17 min 59 sec) 
Finished CPU 0 instructions: 50000003 cycles: 61851061 cumulative IPC: 0.808394 (Simulation time: 0 hr 17 min 59 sec) 

ChampSim completed all CPUs

Region of Interest Statistics

CPU 0 cumulative IPC: 0.808394 instructions: 50000003 cycles: 61851061

SHEET
IPC : 0.808394

L1D TOTAL     ACCESS:   21832625  HIT:   17252714  MISS:    4579911
L1D LOAD      ACCESS:    8727813  HIT:    6449419  MISS:    2278394
L1D RFO       ACCESS:    4588329  HIT:    4483772  MISS:     104557
L1D PREFETCH  ACCESS:    8516483  HIT:    6319523  MISS:    2196960
L1D WRITEBACK ACCESS:          0  HIT:          0  MISS:          0
L1D PREFETCH  REQUESTED:    8761853  ISSUED:    8663608  USEFUL:     108260  USELESS:    2088699
L1D AVERAGE MISS LATENCY: 20.9978 cycles
L1D

SHEET
L1D-total_access : 21832625
L1D-total_hit : 17252714
L1D-total_miss : 4579911
L1D-load_access : 8727813
L1D-load_hit : 6449419
L1D-load_miss : 2278394
L1D-rfo_access : 4588329
L1D-rfo_hit : 4483772
L1D-rfo_miss : 104557
L1D-prefetch_access : 8516483
L1D-prefetch_hit : 6319523
L1D-prefetch_miss : 2196960
L1D-writeback_access : 0
L1D-writeback_hit : 0
L1D-writeback_miss : 0
L1D-prefetch_requested : 8761853
L1D-prefetch_issued : 8663608
L1D-prefetch_useful : 108260
L1D-prefetch_useless : 2088699
L1D-Avg_miss_latency : 20.9978
L1D-Morteza_fill_l2_prefetches : 0

L1I TOTAL     ACCESS:   13191036  HIT:   11304410  MISS:    1886626
L1I LOAD      ACCESS:   10715674  HIT:   10325078  MISS:     390596
L1I RFO       ACCESS:          0  HIT:          0  MISS:          0
L1I PREFETCH  ACCESS:    2475362  HIT:     979332  MISS:    1496030
L1I WRITEBACK ACCESS:          0  HIT:          0  MISS:          0
L1I PREFETCH  REQUESTED:    2769908  ISSUED:    2769811  USEFUL:     779328  USELESS:     716635
L1I AVERAGE MISS LATENCY: 32.2249 cycles
L1I

SHEET
L1I-total_access : 13191036
L1I-total_hit : 11304410
L1I-total_miss : 1886626
L1I-load_access : 10715674
L1I-load_hit : 10325078
L1I-load_miss : 390596
L1I-rfo_access : 0
L1I-rfo_hit : 0
L1I-rfo_miss : 0
L1I-prefetch_access : 2475362
L1I-prefetch_hit : 979332
L1I-prefetch_miss : 1496030
L1I-writeback_access : 0
L1I-writeback_hit : 0
L1I-writeback_miss : 0
L1I-prefetch_requested : 2769908
L1I-prefetch_issued : 2769811
L1I-prefetch_useful : 779328
L1I-prefetch_useless : 716635
L1I-Avg_miss_latency : 32.2249
L1I-Morteza_fill_l2_prefetches : 0

L2C TOTAL     ACCESS:    8178492  HIT:    6888859  MISS:    1289633
L2C LOAD      ACCESS:    2526990  HIT:    2189502  MISS:     337488
L2C RFO       ACCESS:     103599  HIT:      62254  MISS:      41345
L2C PREFETCH  ACCESS:    5291028  HIT:    4381592  MISS:     909436
L2C WRITEBACK ACCESS:     256875  HIT:     255511  MISS:       1364
L2C PREFETCH  REQUESTED:    8196516  ISSUED:    8193390  USEFUL:      37192  USELESS:     871573
L2C AVERAGE MISS LATENCY: 51.4731 cycles
L2C

SHEET
L2C-total_access : 8178492
L2C-total_hit : 6888859
L2C-total_miss : 1289633
L2C-load_access : 2526990
L2C-load_hit : 2189502
L2C-load_miss : 337488
L2C-rfo_access : 103599
L2C-rfo_hit : 62254
L2C-rfo_miss : 41345
L2C-prefetch_access : 5291028
L2C-prefetch_hit : 4381592
L2C-prefetch_miss : 909436
L2C-writeback_access : 256875
L2C-writeback_hit : 255511
L2C-writeback_miss : 1364
L2C-prefetch_requested : 8196516
L2C-prefetch_issued : 8193390
L2C-prefetch_useful : 37192
L2C-prefetch_useless : 871573
L2C-Avg_miss_latency : 51.4731
L2C-Morteza_fill_l2_prefetches : 1498487

LLC TOTAL     ACCESS:    2727378  HIT:    2524980  MISS:     202398
LLC LOAD      ACCESS:     337130  HIT:     302660  MISS:      34470
LLC RFO       ACCESS:      41340  HIT:      30767  MISS:      10573
LLC PREFETCH  ACCESS:    2207738  HIT:    2050751  MISS:     156987
LLC WRITEBACK ACCESS:     141170  HIT:     140802  MISS:        368
LLC PREFETCH  REQUESTED:          0  ISSUED:          0  USEFUL:      13907  USELESS:     141447
LLC AVERAGE MISS LATENCY: 172.441 cycles
LLC

SHEET
LLC-total_access : 2727378
LLC-total_hit : 2524980
LLC-total_miss : 202398
LLC-load_access : 337130
LLC-load_hit : 302660
LLC-load_miss : 34470
LLC-rfo_access : 41340
LLC-rfo_hit : 30767
LLC-rfo_miss : 10573
LLC-prefetch_access : 2207738
LLC-prefetch_hit : 2050751
LLC-prefetch_miss : 156987
LLC-writeback_access : 141170
LLC-writeback_hit : 140802
LLC-writeback_miss : 368
LLC-prefetch_requested : 0
LLC-prefetch_issued : 0
LLC-prefetch_useful : 13907
LLC-prefetch_useless : 141447
LLC-Avg_miss_latency : 172.441
LLC-Morteza_fill_l2_prefetches : 1334572

Major fault: 0 Minor fault: 6374
I-Shadow cache 408 bytes
Touched + WorthPF tables 3072 bytes 
MMA filter 174 bytes 
FNL filter 272 bytes 
TOTAL PREFETCHER STORAGE SIZE: 13014 bytes
CPU 0 L1I next line prefetcher final stats

 morteza stats start 

SHEET
fnlfilter_access_cntr : 20264116
iShadow_access_cntr : 42420038
missahead_access_cntr : 1869239
mmafilter_access_cntr : 4502572
touched_access_cntr : 10853106
worthpf_access_cntr : 20900715


morteza stats endCPU 0 L1D next line prefetcher final stats

DRAM Statistics
 CHANNEL 0
 RQ ROW_BUFFER_HIT:      41792  ROW_BUFFER_MISS:     160216
 DBUS_CONGESTED:      91879
 WQ ROW_BUFFER_HIT:      10726  ROW_BUFFER_MISS:      40589  FULL:          0

 AVG_CONGESTED_CYCLE: 5

CPU 0 Branch Prediction Accuracy: 99.4713% MPKI: 1.11484 Average ROB Occupancy at Mispredict: 103.163

Branch types
NOT_BRANCH: 39456615 78.9132%
BRANCH_DIRECT_JUMP: 445350 0.8907%
BRANCH_INDIRECT: 131149 0.262298%
BRANCH_CONDITIONAL: 8130196 16.2604%
BRANCH_DIRECT_CALL: 732485 1.46497%
BRANCH_INDIRECT_CALL: 172369 0.344738%
BRANCH_RETURN: 931558 1.86312%
BRANCH_OTHER: 0 0%

