Initialize SIGNATURE TABLE
ST_SET: 1
ST_WAY: 256
ST_TAG_BIT: 16
ST_TAG_MASK: ffff

Initialize PATTERN TABLE
PT_SET: 512
PT_WAY: 4
SIG_DELTA_BIT: 7
C_SIG_BIT: 4
C_DELTA_BIT: 4

Initialize PREFETCH FILTER
FILTER_SET: 1024

*** ChampSim Multicore Out-of-Order Simulator ***

Warmup Instructions: 50000000
Simulation Instructions: 50000000
Number of CPUs: 1
LLC sets: 2048
LLC ways: 16
Off-chip DRAM Size: 4096 MB Channels: 1 Width: 64-bit Data Rate: 3200 MT/s

CPU 0 runs /home/mbaradaran/ChampSim/dpc3_traces/server_021.champsimtrace.xz
CPU 0 L1I next line prefetcher
CPU 0 L1D next line prefetcher
Heartbeat CPU 0 instructions: 10000000 cycles: 3624568 heartbeat IPC: 2.75895 cumulative IPC: 2.75895 (Simulation time: 0 hr 1 min 50 sec) 
Heartbeat CPU 0 instructions: 20000000 cycles: 7244112 heartbeat IPC: 2.76278 cumulative IPC: 2.76086 (Simulation time: 0 hr 3 min 54 sec) 
Heartbeat CPU 0 instructions: 30000003 cycles: 10894265 heartbeat IPC: 2.73961 cumulative IPC: 2.75374 (Simulation time: 0 hr 5 min 53 sec) 
Heartbeat CPU 0 instructions: 40000001 cycles: 14508858 heartbeat IPC: 2.76656 cumulative IPC: 2.75694 (Simulation time: 0 hr 7 min 54 sec) 
Heartbeat CPU 0 instructions: 50000002 cycles: 18145188 heartbeat IPC: 2.75003 cumulative IPC: 2.75555 (Simulation time: 0 hr 9 min 58 sec) 

Warmup complete CPU 0 instructions: 50000002 cycles: 18145188 (Simulation time: 0 hr 9 min 58 sec) 

Heartbeat CPU 0 instructions: 60000001 cycles: 34642482 heartbeat IPC: 0.60616 cumulative IPC: 0.60616 (Simulation time: 0 hr 12 min 30 sec) 
Heartbeat CPU 0 instructions: 70000002 cycles: 51326587 heartbeat IPC: 0.599373 cumulative IPC: 0.602747 (Simulation time: 0 hr 15 min 13 sec) 
Heartbeat CPU 0 instructions: 80000001 cycles: 67780600 heartbeat IPC: 0.607754 cumulative IPC: 0.604407 (Simulation time: 0 hr 17 min 51 sec) 
Heartbeat CPU 0 instructions: 90000001 cycles: 84508740 heartbeat IPC: 0.597795 cumulative IPC: 0.60274 (Simulation time: 0 hr 20 min 28 sec) 
Heartbeat CPU 0 instructions: 100000002 cycles: 101060746 heartbeat IPC: 0.604156 cumulative IPC: 0.603023 (Simulation time: 0 hr 22 min 53 sec) 
Finished CPU 0 instructions: 50000000 cycles: 82915558 cumulative IPC: 0.603023 (Simulation time: 0 hr 22 min 53 sec) 

ChampSim completed all CPUs

Region of Interest Statistics

CPU 0 cumulative IPC: 0.603023 instructions: 50000000 cycles: 82915558

SHEET
IPC : 0.603023

L1D TOTAL     ACCESS:   18701999  HIT:   16498516  MISS:    2203483
L1D LOAD      ACCESS:    7064226  HIT:    6364118  MISS:     700108
L1D RFO       ACCESS:    5862016  HIT:    4886433  MISS:     975583
L1D PREFETCH  ACCESS:    5775757  HIT:    5247965  MISS:     527792
L1D WRITEBACK ACCESS:          0  HIT:          0  MISS:          0
L1D PREFETCH  REQUESTED:    7107422  ISSUED:    6902469  USEFUL:     206491  USELESS:     321295
L1D AVERAGE MISS LATENCY: 180.226 cycles
L1D

SHEET
L1D-total_access : 18701999
L1D-total_hit : 16498516
L1D-total_miss : 2203483
L1D-load_access : 7064226
L1D-load_hit : 6364118
L1D-load_miss : 700108
L1D-rfo_access : 5862016
L1D-rfo_hit : 4886433
L1D-rfo_miss : 975583
L1D-prefetch_access : 5775757
L1D-prefetch_hit : 5247965
L1D-prefetch_miss : 527792
L1D-writeback_access : 0
L1D-writeback_hit : 0
L1D-writeback_miss : 0
L1D-prefetch_requested : 7107422
L1D-prefetch_issued : 6902469
L1D-prefetch_useful : 206491
L1D-prefetch_useless : 321295
L1D-Avg_miss_latency : 180.226
L1D-Morteza_fill_l2_prefetches : 0

L1I TOTAL     ACCESS:   15599042  HIT:   11976372  MISS:    3622670
L1I LOAD      ACCESS:   10135074  HIT:   10082169  MISS:      52905
L1I RFO       ACCESS:          0  HIT:          0  MISS:          0
L1I PREFETCH  ACCESS:    5463968  HIT:    1894203  MISS:    3569765
L1I WRITEBACK ACCESS:          0  HIT:          0  MISS:          0
L1I PREFETCH  REQUESTED:    5646147  ISSUED:    5646135  USEFUL:    2731517  USELESS:     838244
L1I AVERAGE MISS LATENCY: 17.0548 cycles
L1I

SHEET
L1I-total_access : 15599042
L1I-total_hit : 11976372
L1I-total_miss : 3622670
L1I-load_access : 10135074
L1I-load_hit : 10082169
L1I-load_miss : 52905
L1I-rfo_access : 0
L1I-rfo_hit : 0
L1I-rfo_miss : 0
L1I-prefetch_access : 5463968
L1I-prefetch_hit : 1894203
L1I-prefetch_miss : 3569765
L1I-writeback_access : 0
L1I-writeback_hit : 0
L1I-writeback_miss : 0
L1I-prefetch_requested : 5646147
L1I-prefetch_issued : 5646135
L1I-prefetch_useful : 2731517
L1I-prefetch_useless : 838244
L1I-Avg_miss_latency : 17.0548
L1I-Morteza_fill_l2_prefetches : 0

L2C TOTAL     ACCESS:    8390574  HIT:    6517752  MISS:    1872822
L2C LOAD      ACCESS:     502726  HIT:     251152  MISS:     251574
L2C RFO       ACCESS:     975038  HIT:      19518  MISS:     955520
L2C PREFETCH  ACCESS:    5732912  HIT:    5070358  MISS:     662554
L2C WRITEBACK ACCESS:    1179898  HIT:    1176724  MISS:       3174
L2C PREFETCH  REQUESTED:    6226533  ISSUED:    6214476  USEFUL:      22736  USELESS:     639688
L2C AVERAGE MISS LATENCY: 216.431 cycles
L2C

SHEET
L2C-total_access : 8390574
L2C-total_hit : 6517752
L2C-total_miss : 1872822
L2C-load_access : 502726
L2C-load_hit : 251152
L2C-load_miss : 251574
L2C-rfo_access : 975038
L2C-rfo_hit : 19518
L2C-rfo_miss : 955520
L2C-prefetch_access : 5732912
L2C-prefetch_hit : 5070358
L2C-prefetch_miss : 662554
L2C-writeback_access : 1179898
L2C-writeback_hit : 1176724
L2C-writeback_miss : 3174
L2C-prefetch_requested : 6226533
L2C-prefetch_issued : 6214476
L2C-prefetch_useful : 22736
L2C-prefetch_useless : 639688
L2C-Avg_miss_latency : 216.431
L2C-Morteza_fill_l2_prefetches : 1434592

LLC TOTAL     ACCESS:    4275879  HIT:    2873922  MISS:    1401957
LLC LOAD      ACCESS:     251493  HIT:     174443  MISS:      77050
LLC RFO       ACCESS:     955515  HIT:     144939  MISS:     810576
LLC PREFETCH  ACCESS:    1953180  HIT:    1441004  MISS:     512176
LLC WRITEBACK ACCESS:    1115691  HIT:    1113536  MISS:       2155
LLC PREFETCH  REQUESTED:          0  ISSUED:          0  USEFUL:      28771  USELESS:     482060
LLC AVERAGE MISS LATENCY: 294.163 cycles
LLC

SHEET
LLC-total_access : 4275879
LLC-total_hit : 2873922
LLC-total_miss : 1401957
LLC-load_access : 251493
LLC-load_hit : 174443
LLC-load_miss : 77050
LLC-rfo_access : 955515
LLC-rfo_hit : 144939
LLC-rfo_miss : 810576
LLC-prefetch_access : 1953180
LLC-prefetch_hit : 1441004
LLC-prefetch_miss : 512176
LLC-writeback_access : 1115691
LLC-writeback_hit : 1113536
LLC-writeback_miss : 2155
LLC-prefetch_requested : 0
LLC-prefetch_issued : 0
LLC-prefetch_useful : 28771
LLC-prefetch_useless : 482060
LLC-Avg_miss_latency : 294.163
LLC-Morteza_fill_l2_prefetches : 1083488

Major fault: 0 Minor fault: 22292
I-Shadow cache 408 bytes
Touched + WorthPF tables 3072 bytes 
MMA filter 174 bytes 
FNL filter 272 bytes 
TOTAL PREFETCHER STORAGE SIZE: 13014 bytes
CPU 0 L1I next line prefetcher final stats

 morteza stats start 

SHEET
fnlfilter_access_cntr : 30948007
iShadow_access_cntr : 43328318
missahead_access_cntr : 6429826
mmafilter_access_cntr : 13692834
touched_access_cntr : 20068509
worthpf_access_cntr : 28593358


morteza stats endCPU 0 L1D next line prefetcher final stats

DRAM Statistics
 CHANNEL 0
 RQ ROW_BUFFER_HIT:     407405  ROW_BUFFER_MISS:     992080
 DBUS_CONGESTED:    1459768
 WQ ROW_BUFFER_HIT:     251196  ROW_BUFFER_MISS:     647011  FULL:          0

 AVG_CONGESTED_CYCLE: 6

CPU 0 Branch Prediction Accuracy: 99.8303% MPKI: 0.27836 Average ROB Occupancy at Mispredict: 224.397

Branch types
NOT_BRANCH: 41798554 83.5971%
BRANCH_DIRECT_JUMP: 445215 0.89043%
BRANCH_INDIRECT: 50481 0.100962%
BRANCH_CONDITIONAL: 5868247 11.7365%
BRANCH_DIRECT_CALL: 758228 1.51646%
BRANCH_INDIRECT_CALL: 160494 0.320988%
BRANCH_RETURN: 918718 1.83744%
BRANCH_OTHER: 0 0%

