Initialize SIGNATURE TABLE
ST_SET: 1
ST_WAY: 256
ST_TAG_BIT: 16
ST_TAG_MASK: ffff

Initialize PATTERN TABLE
PT_SET: 512
PT_WAY: 4
SIG_DELTA_BIT: 7
C_SIG_BIT: 4
C_DELTA_BIT: 4

Initialize PREFETCH FILTER
FILTER_SET: 1024

*** ChampSim Multicore Out-of-Order Simulator ***

Warmup Instructions: 50000000
Simulation Instructions: 50000000
Number of CPUs: 1
LLC sets: 2048
LLC ways: 16
Off-chip DRAM Size: 4096 MB Channels: 1 Width: 64-bit Data Rate: 3200 MT/s

CPU 0 runs /home/mbaradaran/ChampSim/dpc3_traces/server_023.champsimtrace.xz
CPU 0 L1I next line prefetcher
CPU 0 L1D next line prefetcher
Heartbeat CPU 0 instructions: 10000000 cycles: 3505025 heartbeat IPC: 2.85305 cumulative IPC: 2.85305 (Simulation time: 0 hr 1 min 49 sec) 
Heartbeat CPU 0 instructions: 20000000 cycles: 7009108 heartbeat IPC: 2.85381 cumulative IPC: 2.85343 (Simulation time: 0 hr 3 min 34 sec) 
Heartbeat CPU 0 instructions: 30000001 cycles: 10507354 heartbeat IPC: 2.85858 cumulative IPC: 2.85514 (Simulation time: 0 hr 5 min 25 sec) 
Heartbeat CPU 0 instructions: 40000003 cycles: 14011523 heartbeat IPC: 2.85374 cumulative IPC: 2.85479 (Simulation time: 0 hr 7 min 8 sec) 
Heartbeat CPU 0 instructions: 50000001 cycles: 17516943 heartbeat IPC: 2.85272 cumulative IPC: 2.85438 (Simulation time: 0 hr 9 min 2 sec) 

Warmup complete CPU 0 instructions: 50000001 cycles: 17516943 (Simulation time: 0 hr 9 min 2 sec) 

Heartbeat CPU 0 instructions: 60000002 cycles: 25117882 heartbeat IPC: 1.31563 cumulative IPC: 1.31563 (Simulation time: 0 hr 10 min 40 sec) 
Heartbeat CPU 0 instructions: 70000002 cycles: 32896113 heartbeat IPC: 1.28564 cumulative IPC: 1.30046 (Simulation time: 0 hr 12 min 22 sec) 
Heartbeat CPU 0 instructions: 80000000 cycles: 40601875 heartbeat IPC: 1.29773 cumulative IPC: 1.29955 (Simulation time: 0 hr 14 min 5 sec) 
Heartbeat CPU 0 instructions: 90000000 cycles: 48184954 heartbeat IPC: 1.31873 cumulative IPC: 1.30429 (Simulation time: 0 hr 15 min 37 sec) 
Heartbeat CPU 0 instructions: 100000001 cycles: 55862993 heartbeat IPC: 1.30242 cumulative IPC: 1.30392 (Simulation time: 0 hr 17 min 17 sec) 
Finished CPU 0 instructions: 50000000 cycles: 38346050 cumulative IPC: 1.30392 (Simulation time: 0 hr 17 min 17 sec) 

ChampSim completed all CPUs

Region of Interest Statistics

CPU 0 cumulative IPC: 1.30392 instructions: 50000000 cycles: 38346050

SHEET
IPC : 1.30392

L1D TOTAL     ACCESS:   19983173  HIT:   18515756  MISS:    1467417
L1D LOAD      ACCESS:    7154393  HIT:    6495057  MISS:     659336
L1D RFO       ACCESS:    5992926  HIT:    5731125  MISS:     261801
L1D PREFETCH  ACCESS:    6835854  HIT:    6289574  MISS:     546280
L1D WRITEBACK ACCESS:          0  HIT:          0  MISS:          0
L1D PREFETCH  REQUESTED:    7209010  ISSUED:    7092360  USEFUL:     131440  USELESS:     414848
L1D AVERAGE MISS LATENCY: 26.6756 cycles
L1D

SHEET
L1D-total_access : 19983173
L1D-total_hit : 18515756
L1D-total_miss : 1467417
L1D-load_access : 7154393
L1D-load_hit : 6495057
L1D-load_miss : 659336
L1D-rfo_access : 5992926
L1D-rfo_hit : 5731125
L1D-rfo_miss : 261801
L1D-prefetch_access : 6835854
L1D-prefetch_hit : 6289574
L1D-prefetch_miss : 546280
L1D-writeback_access : 0
L1D-writeback_hit : 0
L1D-writeback_miss : 0
L1D-prefetch_requested : 7209010
L1D-prefetch_issued : 7092360
L1D-prefetch_useful : 131440
L1D-prefetch_useless : 414848
L1D-Avg_miss_latency : 26.6756
L1D-Morteza_fill_l2_prefetches : 0

L1I TOTAL     ACCESS:   13696681  HIT:    9832212  MISS:    3864469
L1I LOAD      ACCESS:    9276007  HIT:    8482503  MISS:     793504
L1I RFO       ACCESS:          0  HIT:          0  MISS:          0
L1I PREFETCH  ACCESS:    4420674  HIT:    1349709  MISS:    3070965
L1I WRITEBACK ACCESS:          0  HIT:          0  MISS:          0
L1I PREFETCH  REQUESTED:    4900245  ISSUED:    4900201  USEFUL:    1752228  USELESS:    1318781
L1I AVERAGE MISS LATENCY: 19.9586 cycles
L1I

SHEET
L1I-total_access : 13696681
L1I-total_hit : 9832212
L1I-total_miss : 3864469
L1I-load_access : 9276007
L1I-load_hit : 8482503
L1I-load_miss : 793504
L1I-rfo_access : 0
L1I-rfo_hit : 0
L1I-rfo_miss : 0
L1I-prefetch_access : 4420674
L1I-prefetch_hit : 1349709
L1I-prefetch_miss : 3070965
L1I-writeback_access : 0
L1I-writeback_hit : 0
L1I-writeback_miss : 0
L1I-prefetch_requested : 4900245
L1I-prefetch_issued : 4900201
L1I-prefetch_useful : 1752228
L1I-prefetch_useless : 1318781
L1I-Avg_miss_latency : 19.9586
L1I-Morteza_fill_l2_prefetches : 0

L2C TOTAL     ACCESS:    7214889  HIT:    6063539  MISS:    1151350
L2C LOAD      ACCESS:    1244933  HIT:     942579  MISS:     302354
L2C RFO       ACCESS:     259668  HIT:     146622  MISS:     113046
L2C PREFETCH  ACCESS:    5211001  HIT:    4478890  MISS:     732111
L2C WRITEBACK ACCESS:     499287  HIT:     495448  MISS:       3839
L2C PREFETCH  REQUESTED:    6903912  ISSUED:    6900056  USEFUL:      36769  USELESS:     695431
L2C AVERAGE MISS LATENCY: 39.4275 cycles
L2C

SHEET
L2C-total_access : 7214889
L2C-total_hit : 6063539
L2C-total_miss : 1151350
L2C-load_access : 1244933
L2C-load_hit : 942579
L2C-load_miss : 302354
L2C-rfo_access : 259668
L2C-rfo_hit : 146622
L2C-rfo_miss : 113046
L2C-prefetch_access : 5211001
L2C-prefetch_hit : 4478890
L2C-prefetch_miss : 732111
L2C-writeback_access : 499287
L2C-writeback_hit : 495448
L2C-writeback_miss : 3839
L2C-prefetch_requested : 6903912
L2C-prefetch_issued : 6900056
L2C-prefetch_useful : 36769
L2C-prefetch_useless : 695431
L2C-Avg_miss_latency : 39.4275
L2C-Morteza_fill_l2_prefetches : 1504857

LLC TOTAL     ACCESS:    2625910  HIT:    2573218  MISS:      52692
LLC LOAD      ACCESS:     302062  HIT:     295249  MISS:       6813
LLC RFO       ACCESS:     113030  HIT:      95240  MISS:      17790
LLC PREFETCH  ACCESS:    2026126  HIT:    1998192  MISS:      27934
LLC WRITEBACK ACCESS:     184692  HIT:     184537  MISS:        155
LLC PREFETCH  REQUESTED:          0  ISSUED:          0  USEFUL:       2704  USELESS:      25177
LLC AVERAGE MISS LATENCY: 182.199 cycles
LLC

SHEET
LLC-total_access : 2625910
LLC-total_hit : 2573218
LLC-total_miss : 52692
LLC-load_access : 302062
LLC-load_hit : 295249
LLC-load_miss : 6813
LLC-rfo_access : 113030
LLC-rfo_hit : 95240
LLC-rfo_miss : 17790
LLC-prefetch_access : 2026126
LLC-prefetch_hit : 1998192
LLC-prefetch_miss : 27934
LLC-writeback_access : 184692
LLC-writeback_hit : 184537
LLC-writeback_miss : 155
LLC-prefetch_requested : 0
LLC-prefetch_issued : 0
LLC-prefetch_useful : 2704
LLC-prefetch_useless : 25177
LLC-Avg_miss_latency : 182.199
LLC-Morteza_fill_l2_prefetches : 1333911

Major fault: 0 Minor fault: 2775
I-Shadow cache 408 bytes
Touched + WorthPF tables 3072 bytes 
MMA filter 174 bytes 
FNL filter 272 bytes 
TOTAL PREFETCHER STORAGE SIZE: 13014 bytes
CPU 0 L1I next line prefetcher final stats

 morteza stats start 

SHEET
fnlfilter_access_cntr : 29286922
iShadow_access_cntr : 41609988
missahead_access_cntr : 3372561
mmafilter_access_cntr : 7921406
touched_access_cntr : 17686785
worthpf_access_cntr : 30224226


morteza stats endCPU 0 L1D next line prefetcher final stats

DRAM Statistics
 CHANNEL 0
 RQ ROW_BUFFER_HIT:      15625  ROW_BUFFER_MISS:      36897
 DBUS_CONGESTED:      34679
 WQ ROW_BUFFER_HIT:       2484  ROW_BUFFER_MISS:      19124  FULL:          0

 AVG_CONGESTED_CYCLE: 6

CPU 0 Branch Prediction Accuracy: 99.6798% MPKI: 0.58608 Average ROB Occupancy at Mispredict: 115.156

Branch types
NOT_BRANCH: 40848306 81.6966%
BRANCH_DIRECT_JUMP: 548372 1.09674%
BRANCH_INDIRECT: 189802 0.379604%
BRANCH_CONDITIONAL: 6372768 12.7455%
BRANCH_DIRECT_CALL: 862207 1.72441%
BRANCH_INDIRECT_CALL: 158149 0.316298%
BRANCH_RETURN: 1020345 2.04069%
BRANCH_OTHER: 0 0%

