Initialize SIGNATURE TABLE
ST_SET: 1
ST_WAY: 256
ST_TAG_BIT: 16
ST_TAG_MASK: ffff

Initialize PATTERN TABLE
PT_SET: 512
PT_WAY: 4
SIG_DELTA_BIT: 7
C_SIG_BIT: 4
C_DELTA_BIT: 4

Initialize PREFETCH FILTER
FILTER_SET: 1024

*** ChampSim Multicore Out-of-Order Simulator ***

Warmup Instructions: 50000000
Simulation Instructions: 50000000
Number of CPUs: 1
LLC sets: 2048
LLC ways: 16
Off-chip DRAM Size: 4096 MB Channels: 1 Width: 64-bit Data Rate: 3200 MT/s

CPU 0 runs /home/mbaradaran/ChampSim/dpc3_traces/spec_x264_001.champsimtrace.xz
CPU 0 L1I next line prefetcher
CPU 0 L1D next line prefetcher
Heartbeat CPU 0 instructions: 10000002 cycles: 3060322 heartbeat IPC: 3.26763 cumulative IPC: 3.26763 (Simulation time: 0 hr 1 min 8 sec) 
Heartbeat CPU 0 instructions: 20000002 cycles: 6110709 heartbeat IPC: 3.27827 cumulative IPC: 3.27294 (Simulation time: 0 hr 2 min 11 sec) 
Heartbeat CPU 0 instructions: 30000002 cycles: 9146614 heartbeat IPC: 3.29391 cumulative IPC: 3.2799 (Simulation time: 0 hr 3 min 1 sec) 
Heartbeat CPU 0 instructions: 40000000 cycles: 12191475 heartbeat IPC: 3.28422 cumulative IPC: 3.28098 (Simulation time: 0 hr 3 min 48 sec) 
Heartbeat CPU 0 instructions: 50000000 cycles: 15234873 heartbeat IPC: 3.2858 cumulative IPC: 3.28194 (Simulation time: 0 hr 4 min 36 sec) 

Warmup complete CPU 0 instructions: 50000004 cycles: 15234874 (Simulation time: 0 hr 4 min 36 sec) 

Heartbeat CPU 0 instructions: 60000002 cycles: 21163854 heartbeat IPC: 1.68663 cumulative IPC: 1.68663 (Simulation time: 0 hr 5 min 7 sec) 
Heartbeat CPU 0 instructions: 70000000 cycles: 27075222 heartbeat IPC: 1.69166 cumulative IPC: 1.68914 (Simulation time: 0 hr 5 min 39 sec) 
Heartbeat CPU 0 instructions: 80000003 cycles: 33131522 heartbeat IPC: 1.65117 cumulative IPC: 1.67629 (Simulation time: 0 hr 6 min 10 sec) 
Heartbeat CPU 0 instructions: 90000002 cycles: 39165810 heartbeat IPC: 1.6572 cumulative IPC: 1.67148 (Simulation time: 0 hr 6 min 41 sec) 
Heartbeat CPU 0 instructions: 100000002 cycles: 45066432 heartbeat IPC: 1.69474 cumulative IPC: 1.67608 (Simulation time: 0 hr 7 min 11 sec) 
Finished CPU 0 instructions: 50000002 cycles: 29831559 cumulative IPC: 1.67608 (Simulation time: 0 hr 7 min 11 sec) 

ChampSim completed all CPUs

Region of Interest Statistics

CPU 0 cumulative IPC: 1.67608 instructions: 50000002 cycles: 29831559

SHEET
IPC : 1.67608

L1D TOTAL     ACCESS:   12961662  HIT:   12800586  MISS:     161076
L1D LOAD      ACCESS:    5093580  HIT:    5038412  MISS:      55168
L1D RFO       ACCESS:    2880009  HIT:    2845760  MISS:      34249
L1D PREFETCH  ACCESS:    4988073  HIT:    4916414  MISS:      71659
L1D WRITEBACK ACCESS:          0  HIT:          0  MISS:          0
L1D PREFETCH  REQUESTED:    5110094  ISSUED:    5043329  USEFUL:      25776  USELESS:      45692
L1D AVERAGE MISS LATENCY: 40.0493 cycles
L1D

SHEET
L1D-total_access : 12961662
L1D-total_hit : 12800586
L1D-total_miss : 161076
L1D-load_access : 5093580
L1D-load_hit : 5038412
L1D-load_miss : 55168
L1D-rfo_access : 2880009
L1D-rfo_hit : 2845760
L1D-rfo_miss : 34249
L1D-prefetch_access : 4988073
L1D-prefetch_hit : 4916414
L1D-prefetch_miss : 71659
L1D-writeback_access : 0
L1D-writeback_hit : 0
L1D-writeback_miss : 0
L1D-prefetch_requested : 5110094
L1D-prefetch_issued : 5043329
L1D-prefetch_useful : 25776
L1D-prefetch_useless : 45692
L1D-Avg_miss_latency : 40.0493
L1D-Morteza_fill_l2_prefetches : 0

L1I TOTAL     ACCESS:    8580282  HIT:    8214932  MISS:     365350
L1I LOAD      ACCESS:    8039939  HIT:    8035100  MISS:       4839
L1I RFO       ACCESS:          0  HIT:          0  MISS:          0
L1I PREFETCH  ACCESS:     540343  HIT:     179832  MISS:     360511
L1I WRITEBACK ACCESS:          0  HIT:          0  MISS:          0
L1I PREFETCH  REQUESTED:     549166  ISSUED:     549166  USEFUL:     290426  USELESS:      70116
L1I AVERAGE MISS LATENCY: 14.7692 cycles
L1I

SHEET
L1I-total_access : 8580282
L1I-total_hit : 8214932
L1I-total_miss : 365350
L1I-load_access : 8039939
L1I-load_hit : 8035100
L1I-load_miss : 4839
L1I-rfo_access : 0
L1I-rfo_hit : 0
L1I-rfo_miss : 0
L1I-prefetch_access : 540343
L1I-prefetch_hit : 179832
L1I-prefetch_miss : 360511
L1I-writeback_access : 0
L1I-writeback_hit : 0
L1I-writeback_miss : 0
L1I-prefetch_requested : 549166
L1I-prefetch_issued : 549166
L1I-prefetch_useful : 290426
L1I-prefetch_useless : 70116
L1I-Avg_miss_latency : 14.7692
L1I-Morteza_fill_l2_prefetches : 0

L2C TOTAL     ACCESS:     747443  HIT:     708596  MISS:      38847
L2C LOAD      ACCESS:      58340  HIT:      52775  MISS:       5565
L2C RFO       ACCESS:      34060  HIT:      21985  MISS:      12075
L2C PREFETCH  ACCESS:     611986  HIT:     590854  MISS:      21132
L2C WRITEBACK ACCESS:      43057  HIT:      42982  MISS:         75
L2C PREFETCH  REQUESTED:     581641  ISSUED:     580108  USEFUL:       8904  USELESS:      12432
L2C AVERAGE MISS LATENCY: 104.95 cycles
L2C

SHEET
L2C-total_access : 747443
L2C-total_hit : 708596
L2C-total_miss : 38847
L2C-load_access : 58340
L2C-load_hit : 52775
L2C-load_miss : 5565
L2C-rfo_access : 34060
L2C-rfo_hit : 21985
L2C-rfo_miss : 12075
L2C-prefetch_access : 611986
L2C-prefetch_hit : 590854
L2C-prefetch_miss : 21132
L2C-writeback_access : 43057
L2C-writeback_hit : 42982
L2C-writeback_miss : 75
L2C-prefetch_requested : 581641
L2C-prefetch_issued : 580108
L2C-prefetch_useful : 8904
L2C-prefetch_useless : 12432
L2C-Avg_miss_latency : 104.95
L2C-Morteza_fill_l2_prefetches : 199608

LLC TOTAL     ACCESS:     135087  HIT:     105989  MISS:      29098
LLC LOAD      ACCESS:       5565  HIT:       3431  MISS:       2134
LLC RFO       ACCESS:      12075  HIT:        474  MISS:      11601
LLC PREFETCH  ACCESS:     103843  HIT:      88548  MISS:      15295
LLC WRITEBACK ACCESS:      13604  HIT:      13536  MISS:         68
LLC PREFETCH  REQUESTED:          0  ISSUED:          0  USEFUL:       1701  USELESS:      13946
LLC AVERAGE MISS LATENCY: 165.92 cycles
LLC

SHEET
LLC-total_access : 135087
LLC-total_hit : 105989
LLC-total_miss : 29098
LLC-load_access : 5565
LLC-load_hit : 3431
LLC-load_miss : 2134
LLC-rfo_access : 12075
LLC-rfo_hit : 474
LLC-rfo_miss : 11601
LLC-prefetch_access : 103843
LLC-prefetch_hit : 88548
LLC-prefetch_miss : 15295
LLC-writeback_access : 13604
LLC-writeback_hit : 13536
LLC-writeback_miss : 68
LLC-prefetch_requested : 0
LLC-prefetch_issued : 0
LLC-prefetch_useful : 1701
LLC-prefetch_useless : 13946
LLC-Avg_miss_latency : 165.92
LLC-Morteza_fill_l2_prefetches : 72937

Major fault: 0 Minor fault: 1284
I-Shadow cache 408 bytes
Touched + WorthPF tables 3072 bytes 
MMA filter 174 bytes 
FNL filter 272 bytes 
TOTAL PREFETCHER STORAGE SIZE: 13014 bytes
CPU 0 L1I next line prefetcher final stats

 morteza stats start 

SHEET
fnlfilter_access_cntr : 3804065
iShadow_access_cntr : 34078748
missahead_access_cntr : 663484
mmafilter_access_cntr : 1278584
touched_access_cntr : 2144073
worthpf_access_cntr : 3633268


morteza stats endCPU 0 L1D next line prefetcher final stats

DRAM Statistics
 CHANNEL 0
 RQ ROW_BUFFER_HIT:       9012  ROW_BUFFER_MISS:      20018
 DBUS_CONGESTED:      12312
 WQ ROW_BUFFER_HIT:       2882  ROW_BUFFER_MISS:       9907  FULL:          0

 AVG_CONGESTED_CYCLE: 6

CPU 0 Branch Prediction Accuracy: 97.1633% MPKI: 1.73704 Average ROB Occupancy at Mispredict: 42.6668

Branch types
NOT_BRANCH: 46937921 93.8758%
BRANCH_DIRECT_JUMP: 170816 0.341632%
BRANCH_INDIRECT: 0 0%
BRANCH_CONDITIONAL: 2532774 5.06555%
BRANCH_DIRECT_CALL: 114227 0.228454%
BRANCH_INDIRECT_CALL: 64863 0.129726%
BRANCH_RETURN: 179089 0.358178%
BRANCH_OTHER: 0 0%

