Initialize SIGNATURE TABLE
ST_SET: 1
ST_WAY: 256
ST_TAG_BIT: 16
ST_TAG_MASK: ffff

Initialize PATTERN TABLE
PT_SET: 512
PT_WAY: 4
SIG_DELTA_BIT: 7
C_SIG_BIT: 4
C_DELTA_BIT: 4

Initialize PREFETCH FILTER
FILTER_SET: 1024
MANA initialize 
tds: 2 tdm: 4
size MANA SINGLE: 74 KB
size MANA NULTIPLE: 43 KB
size HOBPT: 5 KB
size SRQ: 0.0644531 KB
size SABs: 0.0402832 KB
size prefetch queue: 0.453125 KB
total: 122.558 KB

*** ChampSim Multicore Out-of-Order Simulator ***

Warmup Instructions: 50000000
Simulation Instructions: 50000000
Number of CPUs: 1
LLC sets: 2048
LLC ways: 16
Off-chip DRAM Size: 4096 MB Channels: 1 Width: 64-bit Data Rate: 3200 MT/s

CPU 0 runs ../dpc3_traces/client_008.champsimtrace.xz
CPU 0 L1D next line prefetcher
Heartbeat CPU 0 instructions: 10000001 cycles: 3752550 heartbeat IPC: 2.66485 cumulative IPC: 2.66485 (Simulation time: 0 hr 1 min 32 sec) 
Heartbeat CPU 0 instructions: 20000001 cycles: 7526667 heartbeat IPC: 2.64963 cumulative IPC: 2.65722 (Simulation time: 0 hr 3 min 5 sec) 
Heartbeat CPU 0 instructions: 30000000 cycles: 11252451 heartbeat IPC: 2.684 cumulative IPC: 2.66609 (Simulation time: 0 hr 4 min 34 sec) 
Heartbeat CPU 0 instructions: 40000002 cycles: 15044874 heartbeat IPC: 2.63684 cumulative IPC: 2.65871 (Simulation time: 0 hr 6 min 7 sec) 
Heartbeat CPU 0 instructions: 50000003 cycles: 18834782 heartbeat IPC: 2.63859 cumulative IPC: 2.65466 (Simulation time: 0 hr 7 min 46 sec) 

Warmup complete CPU 0 instructions: 50000003 cycles: 18834782 (Simulation time: 0 hr 7 min 46 sec) 

Heartbeat CPU 0 instructions: 60000000 cycles: 27002801 heartbeat IPC: 1.22429 cumulative IPC: 1.22429 (Simulation time: 0 hr 9 min 26 sec) 
Heartbeat CPU 0 instructions: 70000000 cycles: 34918559 heartbeat IPC: 1.2633 cumulative IPC: 1.24349 (Simulation time: 0 hr 11 min 11 sec) 
Heartbeat CPU 0 instructions: 80000000 cycles: 43961245 heartbeat IPC: 1.10587 cumulative IPC: 1.19396 (Simulation time: 0 hr 12 min 36 sec) 
Heartbeat CPU 0 instructions: 90000001 cycles: 51313818 heartbeat IPC: 1.36007 cumulative IPC: 1.23156 (Simulation time: 0 hr 13 min 54 sec) 
Heartbeat CPU 0 instructions: 100000001 cycles: 59358713 heartbeat IPC: 1.24302 cumulative IPC: 1.23384 (Simulation time: 0 hr 15 min 14 sec) 
Finished CPU 0 instructions: 50000002 cycles: 40523932 cumulative IPC: 1.23384 (Simulation time: 0 hr 15 min 14 sec) 

ChampSim completed all CPUs

Region of Interest Statistics

CPU 0 cumulative IPC: 1.23384 instructions: 50000002 cycles: 40523932

SHEET
IPC : 1.23384

L1D TOTAL     ACCESS:   20502505  HIT:   18873853  MISS:    1628652
L1D LOAD      ACCESS:    8071252  HIT:    7271830  MISS:     799422
L1D RFO       ACCESS:    4816403  HIT:    4706933  MISS:     109470
L1D PREFETCH  ACCESS:    7614850  HIT:    6895090  MISS:     719760
L1D WRITEBACK ACCESS:          0  HIT:          0  MISS:          0
L1D PREFETCH  REQUESTED:    8140314  ISSUED:    7972173  USEFUL:     199822  USELESS:     519943
L1D AVERAGE MISS LATENCY: 32.6288 cycles
L1D

SHEET
L1D-total_access : 20502505
L1D-total_hit : 18873853
L1D-total_miss : 1628652
L1D-load_access : 8071252
L1D-load_hit : 7271830
L1D-load_miss : 799422
L1D-rfo_access : 4816403
L1D-rfo_hit : 4706933
L1D-rfo_miss : 109470
L1D-prefetch_access : 7614850
L1D-prefetch_hit : 6895090
L1D-prefetch_miss : 719760
L1D-writeback_access : 0
L1D-writeback_hit : 0
L1D-writeback_miss : 0
L1D-prefetch_requested : 8140314
L1D-prefetch_issued : 7972173
L1D-prefetch_useful : 199822
L1D-prefetch_useless : 519943
L1D-Avg_miss_latency : 32.6288
L1D-Morteza_fill_l2_prefetches : 0

L1I TOTAL     ACCESS:   23085995  HIT:   22074281  MISS:    1011714
L1I LOAD      ACCESS:    9702036  HIT:    9508394  MISS:     193642
L1I RFO       ACCESS:          0  HIT:          0  MISS:          0
L1I PREFETCH  ACCESS:   13383959  HIT:   12565887  MISS:     818072
L1I WRITEBACK ACCESS:          0  HIT:          0  MISS:          0
L1I PREFETCH  REQUESTED:   16070110  ISSUED:   16037086  USEFUL:     575960  USELESS:     242160
L1I AVERAGE MISS LATENCY: 17.1078 cycles
L1I

SHEET
L1I-total_access : 23085995
L1I-total_hit : 22074281
L1I-total_miss : 1011714
L1I-load_access : 9702036
L1I-load_hit : 9508394
L1I-load_miss : 193642
L1I-rfo_access : 0
L1I-rfo_hit : 0
L1I-rfo_miss : 0
L1I-prefetch_access : 13383959
L1I-prefetch_hit : 12565887
L1I-prefetch_miss : 818072
L1I-writeback_access : 0
L1I-writeback_hit : 0
L1I-writeback_miss : 0
L1I-prefetch_requested : 16070110
L1I-prefetch_issued : 16037086
L1I-prefetch_useful : 575960
L1I-prefetch_useless : 242160
L1I-Avg_miss_latency : 17.1078
L1I-Morteza_fill_l2_prefetches : 0

L2C TOTAL     ACCESS:    3715317  HIT:    3268764  MISS:     446553
L2C LOAD      ACCESS:     890451  HIT:     724290  MISS:     166161
L2C RFO       ACCESS:     104283  HIT:      18334  MISS:      85949
L2C PREFETCH  ACCESS:    2538600  HIT:    2344574  MISS:     194026
L2C WRITEBACK ACCESS:     181983  HIT:     181566  MISS:        417
L2C PREFETCH  REQUESTED:    3022427  ISSUED:    3015889  USEFUL:      18903  USELESS:     176583
L2C AVERAGE MISS LATENCY: 77.3392 cycles
L2C

SHEET
L2C-total_access : 3715317
L2C-total_hit : 3268764
L2C-total_miss : 446553
L2C-load_access : 890451
L2C-load_hit : 724290
L2C-load_miss : 166161
L2C-rfo_access : 104283
L2C-rfo_hit : 18334
L2C-rfo_miss : 85949
L2C-prefetch_access : 2538600
L2C-prefetch_hit : 2344574
L2C-prefetch_miss : 194026
L2C-writeback_access : 181983
L2C-writeback_hit : 181566
L2C-writeback_miss : 417
L2C-prefetch_requested : 3022427
L2C-prefetch_issued : 3015889
L2C-prefetch_useful : 18903
L2C-prefetch_useless : 176583
L2C-Avg_miss_latency : 77.3392
L2C-Morteza_fill_l2_prefetches : 904301

LLC TOTAL     ACCESS:    1402383  HIT:    1221580  MISS:     180803
LLC LOAD      ACCESS:     166050  HIT:     144803  MISS:      21247
LLC RFO       ACCESS:      85943  HIT:      16334  MISS:      69609
LLC PREFETCH  ACCESS:    1014744  HIT:     925152  MISS:      89592
LLC WRITEBACK ACCESS:     135646  HIT:     135291  MISS:        355
LLC PREFETCH  REQUESTED:          0  ISSUED:          0  USEFUL:      24661  USELESS:      72559
LLC AVERAGE MISS LATENCY: 168.149 cycles
LLC

SHEET
LLC-total_access : 1402383
LLC-total_hit : 1221580
LLC-total_miss : 180803
LLC-load_access : 166050
LLC-load_hit : 144803
LLC-load_miss : 21247
LLC-rfo_access : 85943
LLC-rfo_hit : 16334
LLC-rfo_miss : 69609
LLC-prefetch_access : 1014744
LLC-prefetch_hit : 925152
LLC-prefetch_miss : 89592
LLC-writeback_access : 135646
LLC-writeback_hit : 135291
LLC-writeback_miss : 355
LLC-prefetch_requested : 0
LLC-prefetch_issued : 0
LLC-prefetch_useful : 24661
LLC-prefetch_useless : 72559
LLC-Avg_miss_latency : 168.149
LLC-Morteza_fill_l2_prefetches : 777676

Major fault: 0 Minor fault: 5367



Printing Logs
statHeadFound: 2778757
statHeadMissing: 1800460
statStreamBufferHit: 9481388
statPrefetchEntryFound: 10131958
statCompactorMatch: 11923678
statStreamTrackerLookup: 14060605
statRecord: 2136927
statGetPointer: 4579217
statEnqueuePrefetch: 29688795
statPrefetchQueueIsFull: 583
StreamBufferHitRate: 0.674323
Regions' size: 6981
next_region_correct: 1339837
next_region_wrong: 790101
next_region_correct_prediction: 0.62905
statStreamBufferLookups: 140606050
statL1iLookups: 237510360
statCompactorLookups: 224969680
morteza: start

SHEET
mana_table_access_counter : 4393048
mana_table_multiple_access_counter : 10665447
hobp_table_access_counter : 55331102
sab_access_counter : 19613346
srq_access_counter : 14230681

morteza: end
CPU 0 L1D next line prefetcher final stats

DRAM Statistics
 CHANNEL 0
 RQ ROW_BUFFER_HIT:      52460  ROW_BUFFER_MISS:     127967
 DBUS_CONGESTED:      99046
 WQ ROW_BUFFER_HIT:      23979  ROW_BUFFER_MISS:      66272  FULL:          0

 AVG_CONGESTED_CYCLE: 6

CPU 0 Branch Prediction Accuracy: 98.6482% MPKI: 3.1551 Average ROB Occupancy at Mispredict: 96.3074

Branch types
NOT_BRANCH: 38329598 76.6592%
BRANCH_DIRECT_JUMP: 510116 1.02023%
BRANCH_INDIRECT: 225730 0.45146%
BRANCH_CONDITIONAL: 8366762 16.7335%
BRANCH_DIRECT_CALL: 600748 1.2015%
BRANCH_INDIRECT_CALL: 682990 1.36598%
BRANCH_RETURN: 1283974 2.56795%
BRANCH_OTHER: 0 0%

