Initialize SIGNATURE TABLE
ST_SET: 1
ST_WAY: 256
ST_TAG_BIT: 16
ST_TAG_MASK: ffff

Initialize PATTERN TABLE
PT_SET: 512
PT_WAY: 4
SIG_DELTA_BIT: 7
C_SIG_BIT: 4
C_DELTA_BIT: 4

Initialize PREFETCH FILTER
FILTER_SET: 1024
MANA initialize 
tds: 2 tdm: 4
size MANA SINGLE: 74 KB
size MANA NULTIPLE: 43 KB
size HOBPT: 5 KB
size SRQ: 0.0644531 KB
size SABs: 0.0402832 KB
size prefetch queue: 0.453125 KB
total: 122.558 KB

*** ChampSim Multicore Out-of-Order Simulator ***

Warmup Instructions: 50000000
Simulation Instructions: 50000000
Number of CPUs: 1
LLC sets: 2048
LLC ways: 16
Off-chip DRAM Size: 4096 MB Channels: 1 Width: 64-bit Data Rate: 3200 MT/s

CPU 0 runs ../dpc3_traces/client_005.champsimtrace.xz
CPU 0 L1D next line prefetcher
Heartbeat CPU 0 instructions: 10000001 cycles: 3292177 heartbeat IPC: 3.0375 cumulative IPC: 3.0375 (Simulation time: 0 hr 1 min 18 sec) 
Heartbeat CPU 0 instructions: 20000002 cycles: 6700025 heartbeat IPC: 2.9344 cumulative IPC: 2.98506 (Simulation time: 0 hr 2 min 42 sec) 
Heartbeat CPU 0 instructions: 30000001 cycles: 10393309 heartbeat IPC: 2.70762 cumulative IPC: 2.88647 (Simulation time: 0 hr 4 min 12 sec) 
Heartbeat CPU 0 instructions: 40000000 cycles: 14071101 heartbeat IPC: 2.71902 cumulative IPC: 2.84271 (Simulation time: 0 hr 5 min 41 sec) 
Heartbeat CPU 0 instructions: 50000001 cycles: 17344430 heartbeat IPC: 3.05499 cumulative IPC: 2.88277 (Simulation time: 0 hr 7 min 3 sec) 

Warmup complete CPU 0 instructions: 50000001 cycles: 17344430 (Simulation time: 0 hr 7 min 3 sec) 

Heartbeat CPU 0 instructions: 60000002 cycles: 25051864 heartbeat IPC: 1.29745 cumulative IPC: 1.29745 (Simulation time: 0 hr 8 min 15 sec) 
Heartbeat CPU 0 instructions: 70000003 cycles: 32377498 heartbeat IPC: 1.36507 cumulative IPC: 1.3304 (Simulation time: 0 hr 9 min 33 sec) 
Heartbeat CPU 0 instructions: 80000001 cycles: 39268085 heartbeat IPC: 1.45125 cumulative IPC: 1.36838 (Simulation time: 0 hr 10 min 58 sec) 
Heartbeat CPU 0 instructions: 90000002 cycles: 48781061 heartbeat IPC: 1.0512 cumulative IPC: 1.2724 (Simulation time: 0 hr 12 min 34 sec) 
Heartbeat CPU 0 instructions: 100000002 cycles: 56376069 heartbeat IPC: 1.31665 cumulative IPC: 1.28101 (Simulation time: 0 hr 13 min 43 sec) 
Finished CPU 0 instructions: 50000001 cycles: 39031639 cumulative IPC: 1.28101 (Simulation time: 0 hr 13 min 43 sec) 

ChampSim completed all CPUs

Region of Interest Statistics

CPU 0 cumulative IPC: 1.28101 instructions: 50000001 cycles: 39031639

SHEET
IPC : 1.28101

L1D TOTAL     ACCESS:   19683220  HIT:   19147366  MISS:     535854
L1D LOAD      ACCESS:    6669836  HIT:    6498203  MISS:     171633
L1D RFO       ACCESS:    6795010  HIT:    6610543  MISS:     184467
L1D PREFETCH  ACCESS:    6218374  HIT:    6038620  MISS:     179754
L1D WRITEBACK ACCESS:          0  HIT:          0  MISS:          0
L1D PREFETCH  REQUESTED:    6693110  ISSUED:    6323140  USEFUL:      59570  USELESS:     120072
L1D AVERAGE MISS LATENCY: 92.9823 cycles
L1D

SHEET
L1D-total_access : 19683220
L1D-total_hit : 19147366
L1D-total_miss : 535854
L1D-load_access : 6669836
L1D-load_hit : 6498203
L1D-load_miss : 171633
L1D-rfo_access : 6795010
L1D-rfo_hit : 6610543
L1D-rfo_miss : 184467
L1D-prefetch_access : 6218374
L1D-prefetch_hit : 6038620
L1D-prefetch_miss : 179754
L1D-writeback_access : 0
L1D-writeback_hit : 0
L1D-writeback_miss : 0
L1D-prefetch_requested : 6693110
L1D-prefetch_issued : 6323140
L1D-prefetch_useful : 59570
L1D-prefetch_useless : 120072
L1D-Avg_miss_latency : 92.9823
L1D-Morteza_fill_l2_prefetches : 0

L1I TOTAL     ACCESS:   21544302  HIT:   20636018  MISS:     908284
L1I LOAD      ACCESS:    9290355  HIT:    9059574  MISS:     230781
L1I RFO       ACCESS:          0  HIT:          0  MISS:          0
L1I PREFETCH  ACCESS:   12253947  HIT:   11576444  MISS:     677503
L1I WRITEBACK ACCESS:          0  HIT:          0  MISS:          0
L1I PREFETCH  REQUESTED:   13787044  ISSUED:   13763238  USEFUL:     464091  USELESS:     213409
L1I AVERAGE MISS LATENCY: 20.4133 cycles
L1I

SHEET
L1I-total_access : 21544302
L1I-total_hit : 20636018
L1I-total_miss : 908284
L1I-load_access : 9290355
L1I-load_hit : 9059574
L1I-load_miss : 230781
L1I-rfo_access : 0
L1I-rfo_hit : 0
L1I-rfo_miss : 0
L1I-prefetch_access : 12253947
L1I-prefetch_hit : 11576444
L1I-prefetch_miss : 677503
L1I-writeback_access : 0
L1I-writeback_hit : 0
L1I-writeback_miss : 0
L1I-prefetch_requested : 13787044
L1I-prefetch_issued : 13763238
L1I-prefetch_useful : 464091
L1I-prefetch_useless : 213409
L1I-Avg_miss_latency : 20.4133
L1I-Morteza_fill_l2_prefetches : 0

L2C TOTAL     ACCESS:    2148174  HIT:    1761088  MISS:     387086
L2C LOAD      ACCESS:     320803  HIT:     232108  MISS:      88695
L2C RFO       ACCESS:     180841  HIT:      31818  MISS:     149023
L2C PREFETCH  ACCESS:    1393465  HIT:    1245238  MISS:     148227
L2C WRITEBACK ACCESS:     253065  HIT:     251924  MISS:       1141
L2C PREFETCH  REQUESTED:    1406190  ISSUED:    1405810  USEFUL:      15710  USELESS:     130715
L2C AVERAGE MISS LATENCY: 128.769 cycles
L2C

SHEET
L2C-total_access : 2148174
L2C-total_hit : 1761088
L2C-total_miss : 387086
L2C-load_access : 320803
L2C-load_hit : 232108
L2C-load_miss : 88695
L2C-rfo_access : 180841
L2C-rfo_hit : 31818
L2C-rfo_miss : 149023
L2C-prefetch_access : 1393465
L2C-prefetch_hit : 1245238
L2C-prefetch_miss : 148227
L2C-writeback_access : 253065
L2C-writeback_hit : 251924
L2C-writeback_miss : 1141
L2C-prefetch_requested : 1406190
L2C-prefetch_issued : 1405810
L2C-prefetch_useful : 15710
L2C-prefetch_useless : 130715
L2C-Avg_miss_latency : 128.769
L2C-Morteza_fill_l2_prefetches : 455575

LLC TOTAL     ACCESS:     925922  HIT:     624352  MISS:     301570
LLC LOAD      ACCESS:      88679  HIT:      46672  MISS:      42007
LLC RFO       ACCESS:     149022  HIT:      17872  MISS:     131150
LLC PREFETCH  ACCESS:     489059  HIT:     361591  MISS:     127468
LLC WRITEBACK ACCESS:     199162  HIT:     198217  MISS:        945
LLC PREFETCH  REQUESTED:          0  ISSUED:          0  USEFUL:      27101  USELESS:      95471
LLC AVERAGE MISS LATENCY: 169.964 cycles
LLC

SHEET
LLC-total_access : 925922
LLC-total_hit : 624352
LLC-total_miss : 301570
LLC-load_access : 88679
LLC-load_hit : 46672
LLC-load_miss : 42007
LLC-rfo_access : 149022
LLC-rfo_hit : 17872
LLC-rfo_miss : 131150
LLC-prefetch_access : 489059
LLC-prefetch_hit : 361591
LLC-prefetch_miss : 127468
LLC-writeback_access : 199162
LLC-writeback_hit : 198217
LLC-writeback_miss : 945
LLC-prefetch_requested : 0
LLC-prefetch_issued : 0
LLC-prefetch_useful : 27101
LLC-prefetch_useless : 95471
LLC-Avg_miss_latency : 169.964
LLC-Morteza_fill_l2_prefetches : 273971

Major fault: 0 Minor fault: 6161



Printing Logs
statHeadFound: 2471779
statHeadMissing: 1260466
statStreamBufferHit: 10924392
statPrefetchEntryFound: 10052952
statCompactorMatch: 11446984
statStreamTrackerLookup: 14656637
statRecord: 3209653
statGetPointer: 3732245
statEnqueuePrefetch: 26875849
statPrefetchQueueIsFull: 2058
StreamBufferHitRate: 0.745355
Regions' size: 8593
next_region_correct: 2222867
next_region_wrong: 978185
next_region_correct_prediction: 0.694418
statStreamBufferLookups: 146566370
statL1iLookups: 215006792
statCompactorLookups: 234506192
morteza: start

SHEET
mana_table_access_counter : 5479928
mana_table_multiple_access_counter : 10271143
hobp_table_access_counter : 52775963
sab_access_counter : 20977344
srq_access_counter : 16448806

morteza: end
CPU 0 L1D next line prefetcher final stats

DRAM Statistics
 CHANNEL 0
 RQ ROW_BUFFER_HIT:      97609  ROW_BUFFER_MISS:     203010
 DBUS_CONGESTED:     241076
 WQ ROW_BUFFER_HIT:      52228  ROW_BUFFER_MISS:     131234  FULL:          0

 AVG_CONGESTED_CYCLE: 6

CPU 0 Branch Prediction Accuracy: 97.8666% MPKI: 3.9013 Average ROB Occupancy at Mispredict: 86.9069

Branch types
NOT_BRANCH: 40856330 81.7127%
BRANCH_DIRECT_JUMP: 484667 0.969334%
BRANCH_INDIRECT: 85086 0.170172%
BRANCH_CONDITIONAL: 6230887 12.4618%
BRANCH_DIRECT_CALL: 1028917 2.05783%
BRANCH_INDIRECT_CALL: 141825 0.28365%
BRANCH_RETURN: 1171986 2.34397%
BRANCH_OTHER: 0 0%

