Initialize SIGNATURE TABLE
ST_SET: 1
ST_WAY: 256
ST_TAG_BIT: 16
ST_TAG_MASK: ffff

Initialize PATTERN TABLE
PT_SET: 512
PT_WAY: 4
SIG_DELTA_BIT: 7
C_SIG_BIT: 4
C_DELTA_BIT: 4

Initialize PREFETCH FILTER
FILTER_SET: 1024
MANA initialize 
tds: 2 tdm: 4
size MANA SINGLE: 74 KB
size MANA NULTIPLE: 43 KB
size HOBPT: 5 KB
size SRQ: 0.0644531 KB
size SABs: 0.0402832 KB
size prefetch queue: 0.453125 KB
total: 122.558 KB

*** ChampSim Multicore Out-of-Order Simulator ***

Warmup Instructions: 50000000
Simulation Instructions: 50000000
Number of CPUs: 1
LLC sets: 2048
LLC ways: 16
Off-chip DRAM Size: 4096 MB Channels: 1 Width: 64-bit Data Rate: 3200 MT/s

CPU 0 runs ../dpc3_traces/client_003.champsimtrace.xz
CPU 0 L1D next line prefetcher
Heartbeat CPU 0 instructions: 10000000 cycles: 3478260 heartbeat IPC: 2.875 cumulative IPC: 2.875 (Simulation time: 0 hr 1 min 17 sec) 
Heartbeat CPU 0 instructions: 20000002 cycles: 6932575 heartbeat IPC: 2.89493 cumulative IPC: 2.88493 (Simulation time: 0 hr 2 min 39 sec) 
Heartbeat CPU 0 instructions: 30000003 cycles: 10493678 heartbeat IPC: 2.80812 cumulative IPC: 2.85886 (Simulation time: 0 hr 4 min 3 sec) 
Heartbeat CPU 0 instructions: 40000001 cycles: 14110322 heartbeat IPC: 2.76499 cumulative IPC: 2.8348 (Simulation time: 0 hr 5 min 30 sec) 
Heartbeat CPU 0 instructions: 50000003 cycles: 17655488 heartbeat IPC: 2.82074 cumulative IPC: 2.83198 (Simulation time: 0 hr 6 min 50 sec) 

Warmup complete CPU 0 instructions: 50000003 cycles: 17655488 (Simulation time: 0 hr 6 min 50 sec) 

Heartbeat CPU 0 instructions: 60000002 cycles: 23979186 heartbeat IPC: 1.58135 cumulative IPC: 1.58135 (Simulation time: 0 hr 8 min 7 sec) 
Heartbeat CPU 0 instructions: 70000001 cycles: 30097177 heartbeat IPC: 1.63452 cumulative IPC: 1.6075 (Simulation time: 0 hr 9 min 26 sec) 
Heartbeat CPU 0 instructions: 80000003 cycles: 37027684 heartbeat IPC: 1.4429 cumulative IPC: 1.54861 (Simulation time: 0 hr 10 min 38 sec) 
Heartbeat CPU 0 instructions: 90000000 cycles: 45935738 heartbeat IPC: 1.12258 cumulative IPC: 1.41441 (Simulation time: 0 hr 11 min 39 sec) 
Heartbeat CPU 0 instructions: 100000003 cycles: 56833560 heartbeat IPC: 0.917615 cumulative IPC: 1.27622 (Simulation time: 0 hr 12 min 47 sec) 
Finished CPU 0 instructions: 50000000 cycles: 39178072 cumulative IPC: 1.27622 (Simulation time: 0 hr 12 min 47 sec) 

ChampSim completed all CPUs

Region of Interest Statistics

CPU 0 cumulative IPC: 1.27622 instructions: 50000000 cycles: 39178072

SHEET
IPC : 1.27622

L1D TOTAL     ACCESS:   17700864  HIT:   17204844  MISS:     496020
L1D LOAD      ACCESS:    6061355  HIT:    5936109  MISS:     125246
L1D RFO       ACCESS:    5958465  HIT:    5724138  MISS:     234327
L1D PREFETCH  ACCESS:    5681044  HIT:    5544597  MISS:     136447
L1D WRITEBACK ACCESS:          0  HIT:          0  MISS:          0
L1D PREFETCH  REQUESTED:    6102828  ISSUED:    5961190  USEFUL:      68473  USELESS:      68023
L1D AVERAGE MISS LATENCY: 123.744 cycles
L1D

SHEET
L1D-total_access : 17700864
L1D-total_hit : 17204844
L1D-total_miss : 496020
L1D-load_access : 6061355
L1D-load_hit : 5936109
L1D-load_miss : 125246
L1D-rfo_access : 5958465
L1D-rfo_hit : 5724138
L1D-rfo_miss : 234327
L1D-prefetch_access : 5681044
L1D-prefetch_hit : 5544597
L1D-prefetch_miss : 136447
L1D-writeback_access : 0
L1D-writeback_hit : 0
L1D-writeback_miss : 0
L1D-prefetch_requested : 6102828
L1D-prefetch_issued : 5961190
L1D-prefetch_useful : 68473
L1D-prefetch_useless : 68023
L1D-Avg_miss_latency : 123.744
L1D-Morteza_fill_l2_prefetches : 0

L1I TOTAL     ACCESS:   18115118  HIT:   17479814  MISS:     635304
L1I LOAD      ACCESS:    9433785  HIT:    9279249  MISS:     154536
L1I RFO       ACCESS:          0  HIT:          0  MISS:          0
L1I PREFETCH  ACCESS:    8681333  HIT:    8200565  MISS:     480768
L1I WRITEBACK ACCESS:          0  HIT:          0  MISS:          0
L1I PREFETCH  REQUESTED:    9757321  ISSUED:    9743885  USEFUL:     329321  USELESS:     151509
L1I AVERAGE MISS LATENCY: 20.8042 cycles
L1I

SHEET
L1I-total_access : 18115118
L1I-total_hit : 17479814
L1I-total_miss : 635304
L1I-load_access : 9433785
L1I-load_hit : 9279249
L1I-load_miss : 154536
L1I-rfo_access : 0
L1I-rfo_hit : 0
L1I-rfo_miss : 0
L1I-prefetch_access : 8681333
L1I-prefetch_hit : 8200565
L1I-prefetch_miss : 480768
L1I-writeback_access : 0
L1I-writeback_hit : 0
L1I-writeback_miss : 0
L1I-prefetch_requested : 9757321
L1I-prefetch_issued : 9743885
L1I-prefetch_useful : 329321
L1I-prefetch_useless : 151509
L1I-Avg_miss_latency : 20.8042
L1I-Morteza_fill_l2_prefetches : 0

L2C TOTAL     ACCESS:    1706768  HIT:    1310144  MISS:     396624
L2C LOAD      ACCESS:     197452  HIT:     150795  MISS:      46657
L2C RFO       ACCESS:     232294  HIT:      26177  MISS:     206117
L2C PREFETCH  ACCESS:    1007722  HIT:     865059  MISS:     142663
L2C WRITEBACK ACCESS:     269300  HIT:     268113  MISS:       1187
L2C PREFETCH  REQUESTED:    1122309  ISSUED:    1122043  USEFUL:      12103  USELESS:     130148
L2C AVERAGE MISS LATENCY: 168.467 cycles
L2C

SHEET
L2C-total_access : 1706768
L2C-total_hit : 1310144
L2C-total_miss : 396624
L2C-load_access : 197452
L2C-load_hit : 150795
L2C-load_miss : 46657
L2C-rfo_access : 232294
L2C-rfo_hit : 26177
L2C-rfo_miss : 206117
L2C-prefetch_access : 1007722
L2C-prefetch_hit : 865059
L2C-prefetch_miss : 142663
L2C-writeback_access : 269300
L2C-writeback_hit : 268113
L2C-writeback_miss : 1187
L2C-prefetch_requested : 1122309
L2C-prefetch_issued : 1122043
L2C-prefetch_useful : 12103
L2C-prefetch_useless : 130148
L2C-Avg_miss_latency : 168.467
L2C-Morteza_fill_l2_prefetches : 295022

LLC TOTAL     ACCESS:     975525  HIT:     689907  MISS:     285618
LLC LOAD      ACCESS:      46534  HIT:      33218  MISS:      13316
LLC RFO       ACCESS:     206109  HIT:      34179  MISS:     171930
LLC PREFETCH  ACCESS:     498964  HIT:     399043  MISS:      99921
LLC WRITEBACK ACCESS:     223918  HIT:     223467  MISS:        451
LLC PREFETCH  REQUESTED:          0  ISSUED:          0  USEFUL:      11459  USELESS:      88170
LLC AVERAGE MISS LATENCY: 233.351 cycles
LLC

SHEET
LLC-total_access : 975525
LLC-total_hit : 689907
LLC-total_miss : 285618
LLC-load_access : 46534
LLC-load_hit : 33218
LLC-load_miss : 13316
LLC-rfo_access : 206109
LLC-rfo_hit : 34179
LLC-rfo_miss : 171930
LLC-prefetch_access : 498964
LLC-prefetch_hit : 399043
LLC-prefetch_miss : 99921
LLC-writeback_access : 223918
LLC-writeback_hit : 223467
LLC-writeback_miss : 451
LLC-prefetch_requested : 0
LLC-prefetch_issued : 0
LLC-prefetch_useful : 11459
LLC-prefetch_useless : 88170
LLC-Avg_miss_latency : 233.351
LLC-Morteza_fill_l2_prefetches : 326056

Major fault: 0 Minor fault: 5111



Printing Logs
statHeadFound: 2220915
statHeadMissing: 1848202
statStreamBufferHit: 9962359
statPrefetchEntryFound: 8927306
statCompactorMatch: 11127459
statStreamTrackerLookup: 14031476
statRecord: 2904017
statGetPointer: 4069117
statEnqueuePrefetch: 22960628
statPrefetchQueueIsFull: 2650
StreamBufferHitRate: 0.710001
Regions' size: 9177
next_region_correct: 2016286
next_region_wrong: 878546
next_region_correct_prediction: 0.696512
statStreamBufferLookups: 140314760
statL1iLookups: 183685024
statCompactorLookups: 224503616
morteza: start

SHEET
mana_table_access_counter : 4915282
mana_table_multiple_access_counter : 9155936
hobp_table_access_counter : 53126168
sab_access_counter : 18889665
srq_access_counter : 15642194

morteza: end
CPU 0 L1D next line prefetcher final stats

DRAM Statistics
 CHANNEL 0
 RQ ROW_BUFFER_HIT:     100624  ROW_BUFFER_MISS:     184540
 DBUS_CONGESTED:     260730
 WQ ROW_BUFFER_HIT:      59326  ROW_BUFFER_MISS:     119629  FULL:          0

 AVG_CONGESTED_CYCLE: 6

CPU 0 Branch Prediction Accuracy: 98.6631% MPKI: 2.66884 Average ROB Occupancy at Mispredict: 75.77

Branch types
NOT_BRANCH: 40018780 80.0376%
BRANCH_DIRECT_JUMP: 370861 0.741722%
BRANCH_INDIRECT: 83253 0.166506%
BRANCH_CONDITIONAL: 7877436 15.7549%
BRANCH_DIRECT_CALL: 722316 1.44463%
BRANCH_INDIRECT_CALL: 101901 0.203802%
BRANCH_RETURN: 825355 1.65071%
BRANCH_OTHER: 0 0%

