Initialize SIGNATURE TABLE
ST_SET: 1
ST_WAY: 256
ST_TAG_BIT: 16
ST_TAG_MASK: ffff

Initialize PATTERN TABLE
PT_SET: 512
PT_WAY: 4
SIG_DELTA_BIT: 7
C_SIG_BIT: 4
C_DELTA_BIT: 4

Initialize PREFETCH FILTER
FILTER_SET: 1024
MANA initialize 
tds: 2 tdm: 4
size MANA SINGLE: 74 KB
size MANA NULTIPLE: 43 KB
size HOBPT: 5 KB
size SRQ: 0.0644531 KB
size SABs: 0.0402832 KB
size prefetch queue: 0.453125 KB
total: 122.558 KB

*** ChampSim Multicore Out-of-Order Simulator ***

Warmup Instructions: 50000000
Simulation Instructions: 50000000
Number of CPUs: 1
LLC sets: 2048
LLC ways: 16
Off-chip DRAM Size: 4096 MB Channels: 1 Width: 64-bit Data Rate: 3200 MT/s

CPU 0 runs ../dpc3_traces/client_001.champsimtrace.xz
CPU 0 L1D next line prefetcher
Heartbeat CPU 0 instructions: 10000003 cycles: 3410203 heartbeat IPC: 2.93238 cumulative IPC: 2.93238 (Simulation time: 0 hr 1 min 11 sec) 
Heartbeat CPU 0 instructions: 20000001 cycles: 7118428 heartbeat IPC: 2.69671 cumulative IPC: 2.80961 (Simulation time: 0 hr 2 min 32 sec) 
Heartbeat CPU 0 instructions: 30000001 cycles: 10481030 heartbeat IPC: 2.97389 cumulative IPC: 2.86231 (Simulation time: 0 hr 3 min 45 sec) 
Heartbeat CPU 0 instructions: 40000003 cycles: 14350575 heartbeat IPC: 2.58428 cumulative IPC: 2.78734 (Simulation time: 0 hr 5 min 11 sec) 
Heartbeat CPU 0 instructions: 50000003 cycles: 17647254 heartbeat IPC: 3.03336 cumulative IPC: 2.8333 (Simulation time: 0 hr 6 min 29 sec) 

Warmup complete CPU 0 instructions: 50000003 cycles: 17647254 (Simulation time: 0 hr 6 min 29 sec) 

Heartbeat CPU 0 instructions: 60000000 cycles: 26705376 heartbeat IPC: 1.10398 cumulative IPC: 1.10398 (Simulation time: 0 hr 7 min 49 sec) 
Heartbeat CPU 0 instructions: 70000000 cycles: 33055575 heartbeat IPC: 1.57475 cumulative IPC: 1.298 (Simulation time: 0 hr 8 min 51 sec) 
Heartbeat CPU 0 instructions: 80000002 cycles: 42394104 heartbeat IPC: 1.07083 cumulative IPC: 1.21228 (Simulation time: 0 hr 10 min 27 sec) 
Heartbeat CPU 0 instructions: 90000000 cycles: 48606817 heartbeat IPC: 1.6096 cumulative IPC: 1.29201 (Simulation time: 0 hr 11 min 26 sec) 
Heartbeat CPU 0 instructions: 100000002 cycles: 57473376 heartbeat IPC: 1.12783 cumulative IPC: 1.25546 (Simulation time: 0 hr 12 min 37 sec) 
Finished CPU 0 instructions: 50000003 cycles: 39826123 cumulative IPC: 1.25546 (Simulation time: 0 hr 12 min 37 sec) 

ChampSim completed all CPUs

Region of Interest Statistics

CPU 0 cumulative IPC: 1.25546 instructions: 50000003 cycles: 39826123

SHEET
IPC : 1.25546

L1D TOTAL     ACCESS:   21261805  HIT:   20425322  MISS:     836483
L1D LOAD      ACCESS:    8831772  HIT:    8437282  MISS:     394490
L1D RFO       ACCESS:    4041617  HIT:    3982607  MISS:      59010
L1D PREFETCH  ACCESS:    8388416  HIT:    8005433  MISS:     382983
L1D WRITEBACK ACCESS:          0  HIT:          0  MISS:          0
L1D PREFETCH  REQUESTED:    8876976  ISSUED:    8567065  USEFUL:     129947  USELESS:     253010
L1D AVERAGE MISS LATENCY: 47.3876 cycles
L1D

SHEET
L1D-total_access : 21261805
L1D-total_hit : 20425322
L1D-total_miss : 836483
L1D-load_access : 8831772
L1D-load_hit : 8437282
L1D-load_miss : 394490
L1D-rfo_access : 4041617
L1D-rfo_hit : 3982607
L1D-rfo_miss : 59010
L1D-prefetch_access : 8388416
L1D-prefetch_hit : 8005433
L1D-prefetch_miss : 382983
L1D-writeback_access : 0
L1D-writeback_hit : 0
L1D-writeback_miss : 0
L1D-prefetch_requested : 8876976
L1D-prefetch_issued : 8567065
L1D-prefetch_useful : 129947
L1D-prefetch_useless : 253010
L1D-Avg_miss_latency : 47.3876
L1D-Morteza_fill_l2_prefetches : 0

L1I TOTAL     ACCESS:   20523035  HIT:   20211772  MISS:     311263
L1I LOAD      ACCESS:    8910491  HIT:    8856295  MISS:      54196
L1I RFO       ACCESS:          0  HIT:          0  MISS:          0
L1I PREFETCH  ACCESS:   11612544  HIT:   11355477  MISS:     257067
L1I WRITEBACK ACCESS:          0  HIT:          0  MISS:          0
L1I PREFETCH  REQUESTED:   13698250  ISSUED:   13628571  USEFUL:     220912  USELESS:      36174
L1I AVERAGE MISS LATENCY: 21.8437 cycles
L1I

SHEET
L1I-total_access : 20523035
L1I-total_hit : 20211772
L1I-total_miss : 311263
L1I-load_access : 8910491
L1I-load_hit : 8856295
L1I-load_miss : 54196
L1I-rfo_access : 0
L1I-rfo_hit : 0
L1I-rfo_miss : 0
L1I-prefetch_access : 11612544
L1I-prefetch_hit : 11355477
L1I-prefetch_miss : 257067
L1I-writeback_access : 0
L1I-writeback_hit : 0
L1I-writeback_miss : 0
L1I-prefetch_requested : 13698250
L1I-prefetch_issued : 13628571
L1I-prefetch_useful : 220912
L1I-prefetch_useless : 36174
L1I-Avg_miss_latency : 21.8437
L1I-Morteza_fill_l2_prefetches : 0

L2C TOTAL     ACCESS:    1784762  HIT:    1481566  MISS:     303196
L2C LOAD      ACCESS:     410337  HIT:     297368  MISS:     112969
L2C RFO       ACCESS:      58268  HIT:      21504  MISS:      36764
L2C PREFETCH  ACCESS:    1126548  HIT:     973316  MISS:     153232
L2C WRITEBACK ACCESS:     189609  HIT:     189378  MISS:        231
L2C PREFETCH  REQUESTED:    1565035  ISSUED:    1562171  USEFUL:      14282  USELESS:     138048
L2C AVERAGE MISS LATENCY: 104.871 cycles
L2C

SHEET
L2C-total_access : 1784762
L2C-total_hit : 1481566
L2C-total_miss : 303196
L2C-load_access : 410337
L2C-load_hit : 297368
L2C-load_miss : 112969
L2C-rfo_access : 58268
L2C-rfo_hit : 21504
L2C-rfo_miss : 36764
L2C-prefetch_access : 1126548
L2C-prefetch_hit : 973316
L2C-prefetch_miss : 153232
L2C-writeback_access : 189609
L2C-writeback_hit : 189378
L2C-writeback_miss : 231
L2C-prefetch_requested : 1565035
L2C-prefetch_issued : 1562171
L2C-prefetch_useful : 14282
L2C-prefetch_useless : 138048
L2C-Avg_miss_latency : 104.871
L2C-Morteza_fill_l2_prefetches : 443735

LLC TOTAL     ACCESS:     805524  HIT:     609794  MISS:     195730
LLC LOAD      ACCESS:     112648  HIT:      71187  MISS:      41461
LLC RFO       ACCESS:      36764  HIT:       8689  MISS:      28075
LLC PREFETCH  ACCESS:     550190  HIT:     424688  MISS:     125502
LLC WRITEBACK ACCESS:     105922  HIT:     105230  MISS:        692
LLC PREFETCH  REQUESTED:          0  ISSUED:          0  USEFUL:      29054  USELESS:      98225
LLC AVERAGE MISS LATENCY: 187.08 cycles
LLC

SHEET
LLC-total_access : 805524
LLC-total_hit : 609794
LLC-total_miss : 195730
LLC-load_access : 112648
LLC-load_hit : 71187
LLC-load_miss : 41461
LLC-rfo_access : 36764
LLC-rfo_hit : 8689
LLC-rfo_miss : 28075
LLC-prefetch_access : 550190
LLC-prefetch_hit : 424688
LLC-prefetch_miss : 125502
LLC-writeback_access : 105922
LLC-writeback_hit : 105230
LLC-writeback_miss : 692
LLC-prefetch_requested : 0
LLC-prefetch_issued : 0
LLC-prefetch_useful : 29054
LLC-prefetch_useless : 98225
LLC-Avg_miss_latency : 187.08
LLC-Morteza_fill_l2_prefetches : 331477

Major fault: 0 Minor fault: 3496



Printing Logs
statHeadFound: 1952541
statHeadMissing: 1275039
statStreamBufferHit: 9180978
statPrefetchEntryFound: 7348513
statCompactorMatch: 10931734
statStreamTrackerLookup: 12408558
statRecord: 1476824
statGetPointer: 3227580
statEnqueuePrefetch: 24520004
statPrefetchQueueIsFull: 8589
StreamBufferHitRate: 0.739891
Regions' size: 2266
next_region_correct: 1032391
next_region_wrong: 442159
next_region_correct_prediction: 0.70014
statStreamBufferLookups: 124085580
statL1iLookups: 196160032
statCompactorLookups: 198536928
morteza: start

SHEET
mana_table_access_counter : 2609731
mana_table_multiple_access_counter : 8180295
hobp_table_access_counter : 39090973
sab_access_counter : 16529491
srq_access_counter : 12264217

morteza: end
CPU 0 L1D next line prefetcher final stats

DRAM Statistics
 CHANNEL 0
 RQ ROW_BUFFER_HIT:      47895  ROW_BUFFER_MISS:     147132
 DBUS_CONGESTED:     118993
 WQ ROW_BUFFER_HIT:      15589  ROW_BUFFER_MISS:      65318  FULL:          0

 AVG_CONGESTED_CYCLE: 5

CPU 0 Branch Prediction Accuracy: 97.9037% MPKI: 3.63418 Average ROB Occupancy at Mispredict: 86.018

Branch types
NOT_BRANCH: 41331383 82.6628%
BRANCH_DIRECT_JUMP: 455615 0.91123%
BRANCH_INDIRECT: 20390 0.04078%
BRANCH_CONDITIONAL: 6745374 13.4907%
BRANCH_DIRECT_CALL: 494532 0.989064%
BRANCH_INDIRECT_CALL: 228815 0.45763%
BRANCH_RETURN: 723560 1.44712%
BRANCH_OTHER: 0 0%

