Initialize SIGNATURE TABLE
ST_SET: 1
ST_WAY: 256
ST_TAG_BIT: 16
ST_TAG_MASK: ffff

Initialize PATTERN TABLE
PT_SET: 512
PT_WAY: 4
SIG_DELTA_BIT: 7
C_SIG_BIT: 4
C_DELTA_BIT: 4

Initialize PREFETCH FILTER
FILTER_SET: 1024
MANA initialize 
tds: 2 tdm: 4
size MANA SINGLE: 74 KB
size MANA NULTIPLE: 43 KB
size HOBPT: 5 KB
size SRQ: 0.0644531 KB
size SABs: 0.0402832 KB
size prefetch queue: 0.453125 KB
total: 122.558 KB

*** ChampSim Multicore Out-of-Order Simulator ***

Warmup Instructions: 50000000
Simulation Instructions: 50000000
Number of CPUs: 1
LLC sets: 2048
LLC ways: 16
Off-chip DRAM Size: 4096 MB Channels: 1 Width: 64-bit Data Rate: 3200 MT/s

CPU 0 runs ../dpc3_traces/server_039.champsimtrace.xz
CPU 0 L1D next line prefetcher
Heartbeat CPU 0 instructions: 10000003 cycles: 3451703 heartbeat IPC: 2.89712 cumulative IPC: 2.89712 (Simulation time: 0 hr 1 min 23 sec) 
Heartbeat CPU 0 instructions: 20000002 cycles: 6896417 heartbeat IPC: 2.903 cumulative IPC: 2.90006 (Simulation time: 0 hr 2 min 54 sec) 
Heartbeat CPU 0 instructions: 30000001 cycles: 10342993 heartbeat IPC: 2.90143 cumulative IPC: 2.90051 (Simulation time: 0 hr 4 min 22 sec) 
Heartbeat CPU 0 instructions: 40000002 cycles: 13784978 heartbeat IPC: 2.9053 cumulative IPC: 2.90171 (Simulation time: 0 hr 5 min 53 sec) 
Heartbeat CPU 0 instructions: 50000001 cycles: 17226308 heartbeat IPC: 2.90585 cumulative IPC: 2.90254 (Simulation time: 0 hr 7 min 19 sec) 

Warmup complete CPU 0 instructions: 50000001 cycles: 17226308 (Simulation time: 0 hr 7 min 19 sec) 

Heartbeat CPU 0 instructions: 60000000 cycles: 23273562 heartbeat IPC: 1.65364 cumulative IPC: 1.65364 (Simulation time: 0 hr 8 min 28 sec) 
Heartbeat CPU 0 instructions: 70000000 cycles: 29314878 heartbeat IPC: 1.65527 cumulative IPC: 1.65446 (Simulation time: 0 hr 9 min 38 sec) 
Heartbeat CPU 0 instructions: 80000000 cycles: 35376991 heartbeat IPC: 1.64959 cumulative IPC: 1.65283 (Simulation time: 0 hr 10 min 46 sec) 
Heartbeat CPU 0 instructions: 90000001 cycles: 41430024 heartbeat IPC: 1.65206 cumulative IPC: 1.65264 (Simulation time: 0 hr 11 min 52 sec) 
Heartbeat CPU 0 instructions: 100000002 cycles: 47483397 heartbeat IPC: 1.65197 cumulative IPC: 1.65251 (Simulation time: 0 hr 12 min 58 sec) 
Finished CPU 0 instructions: 50000001 cycles: 30257089 cumulative IPC: 1.65251 (Simulation time: 0 hr 12 min 58 sec) 

ChampSim completed all CPUs

Region of Interest Statistics

CPU 0 cumulative IPC: 1.65251 instructions: 50000001 cycles: 30257089

SHEET
IPC : 1.65251

L1D TOTAL     ACCESS:   20375393  HIT:   19880650  MISS:     494743
L1D LOAD      ACCESS:    6723504  HIT:    6501680  MISS:     221824
L1D RFO       ACCESS:    7094473  HIT:    7027591  MISS:      66882
L1D PREFETCH  ACCESS:    6557416  HIT:    6351379  MISS:     206037
L1D WRITEBACK ACCESS:          0  HIT:          0  MISS:          0
L1D PREFETCH  REQUESTED:    6739329  ISSUED:    6627041  USEFUL:      49975  USELESS:     156066
L1D AVERAGE MISS LATENCY: 15.0155 cycles
L1D

SHEET
L1D-total_access : 20375393
L1D-total_hit : 19880650
L1D-total_miss : 494743
L1D-load_access : 6723504
L1D-load_hit : 6501680
L1D-load_miss : 221824
L1D-rfo_access : 7094473
L1D-rfo_hit : 7027591
L1D-rfo_miss : 66882
L1D-prefetch_access : 6557416
L1D-prefetch_hit : 6351379
L1D-prefetch_miss : 206037
L1D-writeback_access : 0
L1D-writeback_hit : 0
L1D-writeback_miss : 0
L1D-prefetch_requested : 6739329
L1D-prefetch_issued : 6627041
L1D-prefetch_useful : 49975
L1D-prefetch_useless : 156066
L1D-Avg_miss_latency : 15.0155
L1D-Morteza_fill_l2_prefetches : 0

L1I TOTAL     ACCESS:   19178154  HIT:   14847690  MISS:    4330464
L1I LOAD      ACCESS:    9162898  HIT:    8485077  MISS:     677821
L1I RFO       ACCESS:          0  HIT:          0  MISS:          0
L1I PREFETCH  ACCESS:   10015256  HIT:    6362613  MISS:    3652643
L1I WRITEBACK ACCESS:          0  HIT:          0  MISS:          0
L1I PREFETCH  REQUESTED:   11122267  ISSUED:   11122267  USEFUL:    3423167  USELESS:     229482
L1I AVERAGE MISS LATENCY: 13.4477 cycles
L1I

SHEET
L1I-total_access : 19178154
L1I-total_hit : 14847690
L1I-total_miss : 4330464
L1I-load_access : 9162898
L1I-load_hit : 8485077
L1I-load_miss : 677821
L1I-rfo_access : 0
L1I-rfo_hit : 0
L1I-rfo_miss : 0
L1I-prefetch_access : 10015256
L1I-prefetch_hit : 6362613
L1I-prefetch_miss : 3652643
L1I-writeback_access : 0
L1I-writeback_hit : 0
L1I-writeback_miss : 0
L1I-prefetch_requested : 11122267
L1I-prefetch_issued : 11122267
L1I-prefetch_useful : 3423167
L1I-prefetch_useless : 229482
L1I-Avg_miss_latency : 13.4477
L1I-Morteza_fill_l2_prefetches : 0

L2C TOTAL     ACCESS:    6597571  HIT:    6597502  MISS:         69
L2C LOAD      ACCESS:     486705  HIT:     486702  MISS:          3
L2C RFO       ACCESS:      66769  HIT:      66769  MISS:          0
L2C PREFETCH  ACCESS:    5864123  HIT:    5864057  MISS:         66
L2C WRITEBACK ACCESS:     179974  HIT:     179974  MISS:          0
L2C PREFETCH  REQUESTED:    5340052  ISSUED:    5338959  USEFUL:          1  USELESS:          0
L2C AVERAGE MISS LATENCY: 68.1304 cycles
L2C

SHEET
L2C-total_access : 6597571
L2C-total_hit : 6597502
L2C-total_miss : 69
L2C-load_access : 486705
L2C-load_hit : 486702
L2C-load_miss : 3
L2C-rfo_access : 66769
L2C-rfo_hit : 66769
L2C-rfo_miss : 0
L2C-prefetch_access : 5864123
L2C-prefetch_hit : 5864057
L2C-prefetch_miss : 66
L2C-writeback_access : 179974
L2C-writeback_hit : 179974
L2C-writeback_miss : 0
L2C-prefetch_requested : 5340052
L2C-prefetch_issued : 5338959
L2C-prefetch_useful : 1
L2C-prefetch_useless : 0
L2C-Avg_miss_latency : 68.1304
L2C-Morteza_fill_l2_prefetches : 1607635

LLC TOTAL     ACCESS:     998632  HIT:     998360  MISS:        272
LLC LOAD      ACCESS:          3  HIT:          2  MISS:          1
LLC RFO       ACCESS:          0  HIT:          0  MISS:          0
LLC PREFETCH  ACCESS:     998629  HIT:     998358  MISS:        271
LLC WRITEBACK ACCESS:          0  HIT:          0  MISS:          0
LLC PREFETCH  REQUESTED:          0  ISSUED:          0  USEFUL:          2  USELESS:          0
LLC AVERAGE MISS LATENCY: 176.026 cycles
LLC

SHEET
LLC-total_access : 998632
LLC-total_hit : 998360
LLC-total_miss : 272
LLC-load_access : 3
LLC-load_hit : 2
LLC-load_miss : 1
LLC-rfo_access : 0
LLC-rfo_hit : 0
LLC-rfo_miss : 0
LLC-prefetch_access : 998629
LLC-prefetch_hit : 998358
LLC-prefetch_miss : 271
LLC-writeback_access : 0
LLC-writeback_hit : 0
LLC-writeback_miss : 0
LLC-prefetch_requested : 0
LLC-prefetch_issued : 0
LLC-prefetch_useful : 2
LLC-prefetch_useless : 0
LLC-Avg_miss_latency : 176.026
LLC-Morteza_fill_l2_prefetches : 998358

Major fault: 0 Minor fault: 401



Printing Logs
statHeadFound: 1573994
statHeadMissing: 1654016
statStreamBufferHit: 10992206
statPrefetchEntryFound: 7697701
statCompactorMatch: 10661600
statStreamTrackerLookup: 14220216
statRecord: 3558616
statGetPointer: 3228010
statEnqueuePrefetch: 22447248
statPrefetchQueueIsFull: 0
StreamBufferHitRate: 0.772999
Regions' size: 794
next_region_correct: 2687179
next_region_wrong: 870635
next_region_correct_prediction: 0.755289
statStreamBufferLookups: 142202160
statL1iLookups: 179577984
statCompactorLookups: 227523456
morteza: start

SHEET
mana_table_access_counter : 7410103
mana_table_multiple_access_counter : 5421184
hobp_table_access_counter : 47757862
sab_access_counter : 18689907
srq_access_counter : 17180531

morteza: end
CPU 0 L1D next line prefetcher final stats

DRAM Statistics
 CHANNEL 0
 RQ ROW_BUFFER_HIT:         32  ROW_BUFFER_MISS:        240
 DBUS_CONGESTED:         50
 WQ ROW_BUFFER_HIT:          0  ROW_BUFFER_MISS:          0  FULL:          0

 AVG_CONGESTED_CYCLE: 6

CPU 0 Branch Prediction Accuracy: 99.9091% MPKI: 0.1547 Average ROB Occupancy at Mispredict: 183.232

Branch types
NOT_BRANCH: 41494930 82.9899%
BRANCH_DIRECT_JUMP: 491308 0.982616%
BRANCH_INDIRECT: 0 0%
BRANCH_CONDITIONAL: 5595248 11.1905%
BRANCH_DIRECT_CALL: 1028408 2.05682%
BRANCH_INDIRECT_CALL: 180756 0.361512%
BRANCH_RETURN: 1209170 2.41834%
BRANCH_OTHER: 0 0%

