Initialize SIGNATURE TABLE
ST_SET: 1
ST_WAY: 256
ST_TAG_BIT: 16
ST_TAG_MASK: ffff

Initialize PATTERN TABLE
PT_SET: 512
PT_WAY: 4
SIG_DELTA_BIT: 7
C_SIG_BIT: 4
C_DELTA_BIT: 4

Initialize PREFETCH FILTER
FILTER_SET: 1024
MANA initialize 
tds: 2 tdm: 4
size MANA SINGLE: 74 KB
size MANA NULTIPLE: 43 KB
size HOBPT: 5 KB
size SRQ: 0.0644531 KB
size SABs: 0.0402832 KB
size prefetch queue: 0.453125 KB
total: 122.558 KB

*** ChampSim Multicore Out-of-Order Simulator ***

Warmup Instructions: 50000000
Simulation Instructions: 50000000
Number of CPUs: 1
LLC sets: 2048
LLC ways: 16
Off-chip DRAM Size: 4096 MB Channels: 1 Width: 64-bit Data Rate: 3200 MT/s

CPU 0 runs ../dpc3_traces/server_030.champsimtrace.xz
CPU 0 L1D next line prefetcher
Heartbeat CPU 0 instructions: 10000003 cycles: 3509639 heartbeat IPC: 2.8493 cumulative IPC: 2.8493 (Simulation time: 0 hr 1 min 23 sec) 
Heartbeat CPU 0 instructions: 20000003 cycles: 7019023 heartbeat IPC: 2.8495 cumulative IPC: 2.8494 (Simulation time: 0 hr 2 min 49 sec) 
Heartbeat CPU 0 instructions: 30000000 cycles: 10527339 heartbeat IPC: 2.85037 cumulative IPC: 2.84972 (Simulation time: 0 hr 4 min 23 sec) 
Heartbeat CPU 0 instructions: 40000002 cycles: 14036540 heartbeat IPC: 2.84965 cumulative IPC: 2.84971 (Simulation time: 0 hr 5 min 51 sec) 
Heartbeat CPU 0 instructions: 50000002 cycles: 17548289 heartbeat IPC: 2.84758 cumulative IPC: 2.84928 (Simulation time: 0 hr 7 min 28 sec) 

Warmup complete CPU 0 instructions: 50000002 cycles: 17548289 (Simulation time: 0 hr 7 min 28 sec) 

Heartbeat CPU 0 instructions: 60000000 cycles: 24859706 heartbeat IPC: 1.36772 cumulative IPC: 1.36772 (Simulation time: 0 hr 8 min 55 sec) 
Heartbeat CPU 0 instructions: 70000000 cycles: 32198037 heartbeat IPC: 1.36271 cumulative IPC: 1.36521 (Simulation time: 0 hr 10 min 20 sec) 
Heartbeat CPU 0 instructions: 80000001 cycles: 39513746 heartbeat IPC: 1.36692 cumulative IPC: 1.36578 (Simulation time: 0 hr 11 min 41 sec) 
*** Reached end of trace for Core: 0 Repeating trace: ../dpc3_traces/server_030.champsimtrace.xz
Heartbeat CPU 0 instructions: 90000002 cycles: 46847890 heartbeat IPC: 1.36349 cumulative IPC: 1.36521 (Simulation time: 0 hr 13 min 3 sec) 
Heartbeat CPU 0 instructions: 100000002 cycles: 54144475 heartbeat IPC: 1.3705 cumulative IPC: 1.36626 (Simulation time: 0 hr 14 min 24 sec) 
Finished CPU 0 instructions: 50000000 cycles: 36596186 cumulative IPC: 1.36626 (Simulation time: 0 hr 14 min 24 sec) 

ChampSim completed all CPUs

Region of Interest Statistics

CPU 0 cumulative IPC: 1.36626 instructions: 50000000 cycles: 36596186

SHEET
IPC : 1.36626

L1D TOTAL     ACCESS:   19525511  HIT:   17449558  MISS:    2075953
L1D LOAD      ACCESS:    6936256  HIT:    5886011  MISS:    1050245
L1D RFO       ACCESS:    6186550  HIT:    5900799  MISS:     285751
L1D PREFETCH  ACCESS:    6402705  HIT:    5662748  MISS:     739957
L1D WRITEBACK ACCESS:          0  HIT:          0  MISS:          0
L1D PREFETCH  REQUESTED:    6985670  ISSUED:    6861371  USEFUL:     185017  USELESS:     555033
L1D AVERAGE MISS LATENCY: 18.7476 cycles
L1D

SHEET
L1D-total_access : 19525511
L1D-total_hit : 17449558
L1D-total_miss : 2075953
L1D-load_access : 6936256
L1D-load_hit : 5886011
L1D-load_miss : 1050245
L1D-rfo_access : 6186550
L1D-rfo_hit : 5900799
L1D-rfo_miss : 285751
L1D-prefetch_access : 6402705
L1D-prefetch_hit : 5662748
L1D-prefetch_miss : 739957
L1D-writeback_access : 0
L1D-writeback_hit : 0
L1D-writeback_miss : 0
L1D-prefetch_requested : 6985670
L1D-prefetch_issued : 6861371
L1D-prefetch_useful : 185017
L1D-prefetch_useless : 555033
L1D-Avg_miss_latency : 18.7476
L1D-Morteza_fill_l2_prefetches : 0

L1I TOTAL     ACCESS:   19116362  HIT:   15422005  MISS:    3694357
L1I LOAD      ACCESS:    9544941  HIT:    8720196  MISS:     824745
L1I RFO       ACCESS:          0  HIT:          0  MISS:          0
L1I PREFETCH  ACCESS:    9571421  HIT:    6701809  MISS:    2869612
L1I WRITEBACK ACCESS:          0  HIT:          0  MISS:          0
L1I PREFETCH  REQUESTED:   10872011  ISSUED:   10862324  USEFUL:    2179693  USELESS:     689928
L1I AVERAGE MISS LATENCY: 15.7557 cycles
L1I

SHEET
L1I-total_access : 19116362
L1I-total_hit : 15422005
L1I-total_miss : 3694357
L1I-load_access : 9544941
L1I-load_hit : 8720196
L1I-load_miss : 824745
L1I-rfo_access : 0
L1I-rfo_hit : 0
L1I-rfo_miss : 0
L1I-prefetch_access : 9571421
L1I-prefetch_hit : 6701809
L1I-prefetch_miss : 2869612
L1I-writeback_access : 0
L1I-writeback_hit : 0
L1I-writeback_miss : 0
L1I-prefetch_requested : 10872011
L1I-prefetch_issued : 10862324
L1I-prefetch_useful : 2179693
L1I-prefetch_useless : 689928
L1I-Avg_miss_latency : 15.7557
L1I-Morteza_fill_l2_prefetches : 0

L2C TOTAL     ACCESS:    8110536  HIT:    7405025  MISS:     705511
L2C LOAD      ACCESS:    1300466  HIT:    1138218  MISS:     162248
L2C RFO       ACCESS:     283775  HIT:     234829  MISS:      48946
L2C PREFETCH  ACCESS:    5910779  HIT:    5420622  MISS:     490157
L2C WRITEBACK ACCESS:     615516  HIT:     611356  MISS:       4160
L2C PREFETCH  REQUESTED:    7234534  ISSUED:    7198517  USEFUL:      17212  USELESS:     472268
L2C AVERAGE MISS LATENCY: 34.6081 cycles
L2C

SHEET
L2C-total_access : 8110536
L2C-total_hit : 7405025
L2C-total_miss : 705511
L2C-load_access : 1300466
L2C-load_hit : 1138218
L2C-load_miss : 162248
L2C-rfo_access : 283775
L2C-rfo_hit : 234829
L2C-rfo_miss : 48946
L2C-prefetch_access : 5910779
L2C-prefetch_hit : 5420622
L2C-prefetch_miss : 490157
L2C-writeback_access : 615516
L2C-writeback_hit : 611356
L2C-writeback_miss : 4160
L2C-prefetch_requested : 7234534
L2C-prefetch_issued : 7198517
L2C-prefetch_useful : 17212
L2C-prefetch_useless : 472268
L2C-Avg_miss_latency : 34.6081
L2C-Morteza_fill_l2_prefetches : 1801567

LLC TOTAL     ACCESS:    3089124  HIT:    3065855  MISS:      23269
LLC LOAD      ACCESS:     162072  HIT:     159101  MISS:       2971
LLC RFO       ACCESS:      48911  HIT:      47107  MISS:       1804
LLC PREFETCH  ACCESS:    2778070  HIT:    2759701  MISS:      18369
LLC WRITEBACK ACCESS:     100071  HIT:      99946  MISS:        125
LLC PREFETCH  REQUESTED:          0  ISSUED:          0  USEFUL:       1022  USELESS:      15726
LLC AVERAGE MISS LATENCY: 149.877 cycles
LLC

SHEET
LLC-total_access : 3089124
LLC-total_hit : 3065855
LLC-total_miss : 23269
LLC-load_access : 162072
LLC-load_hit : 159101
LLC-load_miss : 2971
LLC-rfo_access : 48911
LLC-rfo_hit : 47107
LLC-rfo_miss : 1804
LLC-prefetch_access : 2778070
LLC-prefetch_hit : 2759701
LLC-prefetch_miss : 18369
LLC-writeback_access : 100071
LLC-writeback_hit : 99946
LLC-writeback_miss : 125
LLC-prefetch_requested : 0
LLC-prefetch_issued : 0
LLC-prefetch_useful : 1022
LLC-prefetch_useless : 15726
LLC-Avg_miss_latency : 149.877
LLC-Morteza_fill_l2_prefetches : 2295746

Major fault: 0 Minor fault: 2110



Printing Logs
statHeadFound: 1741994
statHeadMissing: 1784782
statStreamBufferHit: 10983980
statPrefetchEntryFound: 7962048
statCompactorMatch: 11118197
statStreamTrackerLookup: 14510756
statRecord: 3392559
statGetPointer: 3526776
statEnqueuePrefetch: 21676032
statPrefetchQueueIsFull: 0
StreamBufferHitRate: 0.756954
Regions' size: 2297
next_region_correct: 2330780
next_region_wrong: 1059474
next_region_correct_prediction: 0.687494
statStreamBufferLookups: 145107560
statL1iLookups: 173408256
statCompactorLookups: 232172096
morteza: start

SHEET
mana_table_access_counter : 7005962
mana_table_multiple_access_counter : 6093844
hobp_table_access_counter : 49751846
sab_access_counter : 18946028
srq_access_counter : 16895230

morteza: end
CPU 0 L1D next line prefetcher final stats

DRAM Statistics
 CHANNEL 0
 RQ ROW_BUFFER_HIT:       7480  ROW_BUFFER_MISS:      15664
 DBUS_CONGESTED:       8065
 WQ ROW_BUFFER_HIT:        165  ROW_BUFFER_MISS:       2542  FULL:          0

 AVG_CONGESTED_CYCLE: 5

CPU 0 Branch Prediction Accuracy: 99.8445% MPKI: 0.29148 Average ROB Occupancy at Mispredict: 145.279

Branch types
NOT_BRANCH: 40628081 81.2562%
BRANCH_DIRECT_JUMP: 490941 0.981882%
BRANCH_INDIRECT: 175854 0.351708%
BRANCH_CONDITIONAL: 6321415 12.6428%
BRANCH_DIRECT_CALL: 1002072 2.00414%
BRANCH_INDIRECT_CALL: 189783 0.379566%
BRANCH_RETURN: 1191851 2.3837%
BRANCH_OTHER: 0 0%

