Initialize SIGNATURE TABLE
ST_SET: 1
ST_WAY: 256
ST_TAG_BIT: 16
ST_TAG_MASK: ffff

Initialize PATTERN TABLE
PT_SET: 512
PT_WAY: 4
SIG_DELTA_BIT: 7
C_SIG_BIT: 4
C_DELTA_BIT: 4

Initialize PREFETCH FILTER
FILTER_SET: 1024
MANA initialize 
tds: 2 tdm: 4
size MANA SINGLE: 74 KB
size MANA NULTIPLE: 43 KB
size HOBPT: 5 KB
size SRQ: 0.0644531 KB
size SABs: 0.0402832 KB
size prefetch queue: 0.453125 KB
total: 122.558 KB

*** ChampSim Multicore Out-of-Order Simulator ***

Warmup Instructions: 50000000
Simulation Instructions: 50000000
Number of CPUs: 1
LLC sets: 2048
LLC ways: 16
Off-chip DRAM Size: 4096 MB Channels: 1 Width: 64-bit Data Rate: 3200 MT/s

CPU 0 runs ../dpc3_traces/server_004.champsimtrace.xz
CPU 0 L1D next line prefetcher
Heartbeat CPU 0 instructions: 10000002 cycles: 3227336 heartbeat IPC: 3.09853 cumulative IPC: 3.09853 (Simulation time: 0 hr 1 min 18 sec) 
Heartbeat CPU 0 instructions: 20000002 cycles: 6561098 heartbeat IPC: 2.99961 cumulative IPC: 3.04827 (Simulation time: 0 hr 2 min 40 sec) 
Heartbeat CPU 0 instructions: 30000000 cycles: 11678296 heartbeat IPC: 1.95419 cumulative IPC: 2.56887 (Simulation time: 0 hr 4 min 21 sec) 
Heartbeat CPU 0 instructions: 40000003 cycles: 15425161 heartbeat IPC: 2.6689 cumulative IPC: 2.59317 (Simulation time: 0 hr 5 min 44 sec) 
Heartbeat CPU 0 instructions: 50000003 cycles: 18651701 heartbeat IPC: 3.0993 cumulative IPC: 2.68072 (Simulation time: 0 hr 7 min 3 sec) 

Warmup complete CPU 0 instructions: 50000003 cycles: 18651701 (Simulation time: 0 hr 7 min 3 sec) 

Heartbeat CPU 0 instructions: 60000002 cycles: 27431931 heartbeat IPC: 1.13892 cumulative IPC: 1.13892 (Simulation time: 0 hr 8 min 20 sec) 
Heartbeat CPU 0 instructions: 70000000 cycles: 35701637 heartbeat IPC: 1.20923 cumulative IPC: 1.17302 (Simulation time: 0 hr 9 min 37 sec) 
Heartbeat CPU 0 instructions: 80000001 cycles: 56677975 heartbeat IPC: 0.476728 cumulative IPC: 0.788928 (Simulation time: 0 hr 11 min 49 sec) 
Heartbeat CPU 0 instructions: 90000003 cycles: 71653777 heartbeat IPC: 0.667744 cumulative IPC: 0.754687 (Simulation time: 0 hr 13 min 24 sec) 
Heartbeat CPU 0 instructions: 100000003 cycles: 80490128 heartbeat IPC: 1.13169 cumulative IPC: 0.808559 (Simulation time: 0 hr 14 min 47 sec) 
Finished CPU 0 instructions: 50000000 cycles: 61838427 cumulative IPC: 0.808559 (Simulation time: 0 hr 14 min 47 sec) 

ChampSim completed all CPUs

Region of Interest Statistics

CPU 0 cumulative IPC: 0.808559 instructions: 50000000 cycles: 61838427

SHEET
IPC : 0.808559

L1D TOTAL     ACCESS:   21717126  HIT:   17645900  MISS:    4071226
L1D LOAD      ACCESS:    8639118  HIT:    6621128  MISS:    2017990
L1D RFO       ACCESS:    4647548  HIT:    4540558  MISS:     106990
L1D PREFETCH  ACCESS:    8430460  HIT:    6484214  MISS:    1946246
L1D WRITEBACK ACCESS:          0  HIT:          0  MISS:          0
L1D PREFETCH  REQUESTED:    8675321  ISSUED:    8585887  USEFUL:     106519  USELESS:    1839718
L1D AVERAGE MISS LATENCY: 22.8491 cycles
L1D

SHEET
L1D-total_access : 21717126
L1D-total_hit : 17645900
L1D-total_miss : 4071226
L1D-load_access : 8639118
L1D-load_hit : 6621128
L1D-load_miss : 2017990
L1D-rfo_access : 4647548
L1D-rfo_hit : 4540558
L1D-rfo_miss : 106990
L1D-prefetch_access : 8430460
L1D-prefetch_hit : 6484214
L1D-prefetch_miss : 1946246
L1D-writeback_access : 0
L1D-writeback_hit : 0
L1D-writeback_miss : 0
L1D-prefetch_requested : 8675321
L1D-prefetch_issued : 8585887
L1D-prefetch_useful : 106519
L1D-prefetch_useless : 1839718
L1D-Avg_miss_latency : 22.8491
L1D-Morteza_fill_l2_prefetches : 0

L1I TOTAL     ACCESS:   22897909  HIT:   21436297  MISS:    1461612
L1I LOAD      ACCESS:   10672703  HIT:   10380514  MISS:     292189
L1I RFO       ACCESS:          0  HIT:          0  MISS:          0
L1I PREFETCH  ACCESS:   12225206  HIT:   11055783  MISS:    1169423
L1I WRITEBACK ACCESS:          0  HIT:          0  MISS:          0
L1I PREFETCH  REQUESTED:   13659913  ISSUED:   13571184  USEFUL:     801983  USELESS:     367395
L1I AVERAGE MISS LATENCY: 33.589 cycles
L1I

SHEET
L1I-total_access : 22897909
L1I-total_hit : 21436297
L1I-total_miss : 1461612
L1I-load_access : 10672703
L1I-load_hit : 10380514
L1I-load_miss : 292189
L1I-rfo_access : 0
L1I-rfo_hit : 0
L1I-rfo_miss : 0
L1I-prefetch_access : 12225206
L1I-prefetch_hit : 11055783
L1I-prefetch_miss : 1169423
L1I-writeback_access : 0
L1I-writeback_hit : 0
L1I-writeback_miss : 0
L1I-prefetch_requested : 13659913
L1I-prefetch_issued : 13571184
L1I-prefetch_useful : 801983
L1I-prefetch_useless : 367395
L1I-Avg_miss_latency : 33.589
L1I-Morteza_fill_l2_prefetches : 0

L2C TOTAL     ACCESS:    7035240  HIT:    5971006  MISS:    1064234
L2C LOAD      ACCESS:    2168689  HIT:    1892014  MISS:     276675
L2C RFO       ACCESS:     105729  HIT:      57974  MISS:      47755
L2C PREFETCH  ACCESS:    4515774  HIT:    3777246  MISS:     738528
L2C WRITEBACK ACCESS:     245048  HIT:     243772  MISS:       1276
L2C PREFETCH  REQUESTED:    6371436  ISSUED:    6369981  USEFUL:      39205  USELESS:     698666
L2C AVERAGE MISS LATENCY: 59.3347 cycles
L2C

SHEET
L2C-total_access : 7035240
L2C-total_hit : 5971006
L2C-total_miss : 1064234
L2C-load_access : 2168689
L2C-load_hit : 1892014
L2C-load_miss : 276675
L2C-rfo_access : 105729
L2C-rfo_hit : 57974
L2C-rfo_miss : 47755
L2C-prefetch_access : 4515774
L2C-prefetch_hit : 3777246
L2C-prefetch_miss : 738528
L2C-writeback_access : 245048
L2C-writeback_hit : 243772
L2C-writeback_miss : 1276
L2C-prefetch_requested : 6371436
L2C-prefetch_issued : 6369981
L2C-prefetch_useful : 39205
L2C-prefetch_useless : 698666
L2C-Avg_miss_latency : 59.3347
L2C-Morteza_fill_l2_prefetches : 1259230

LLC TOTAL     ACCESS:    2370183  HIT:    2140574  MISS:     229609
LLC LOAD      ACCESS:     276093  HIT:     232738  MISS:      43355
LLC RFO       ACCESS:      47752  HIT:      33913  MISS:      13839
LLC PREFETCH  ACCESS:    1906824  HIT:    1734705  MISS:     172119
LLC WRITEBACK ACCESS:     139514  HIT:     139218  MISS:        296
LLC PREFETCH  REQUESTED:          0  ISSUED:          0  USEFUL:      18268  USELESS:     152941
LLC AVERAGE MISS LATENCY: 176.577 cycles
LLC

SHEET
LLC-total_access : 2370183
LLC-total_hit : 2140574
LLC-total_miss : 229609
LLC-load_access : 276093
LLC-load_hit : 232738
LLC-load_miss : 43355
LLC-rfo_access : 47752
LLC-rfo_hit : 33913
LLC-rfo_miss : 13839
LLC-prefetch_access : 1906824
LLC-prefetch_hit : 1734705
LLC-prefetch_miss : 172119
LLC-writeback_access : 139514
LLC-writeback_hit : 139218
LLC-writeback_miss : 296
LLC-prefetch_requested : 0
LLC-prefetch_issued : 0
LLC-prefetch_useful : 18268
LLC-prefetch_useless : 152941
LLC-Avg_miss_latency : 176.577
LLC-Morteza_fill_l2_prefetches : 1125433

Major fault: 0 Minor fault: 7656



Printing Logs
statHeadFound: 2493881
statHeadMissing: 1264716
statStreamBufferHit: 11583845
statPrefetchEntryFound: 9317385
statCompactorMatch: 12914580
statStreamTrackerLookup: 15342442
statRecord: 2427862
statGetPointer: 3758597
statEnqueuePrefetch: 26518165
statPrefetchQueueIsFull: 1125
StreamBufferHitRate: 0.75502
Regions' size: 9528
next_region_correct: 1812064
next_region_wrong: 606262
next_region_correct_prediction: 0.749305
statStreamBufferLookups: 153424420
statL1iLookups: 212145320
statCompactorLookups: 245479072
morteza: start

SHEET
mana_table_access_counter : 5791484
mana_table_multiple_access_counter : 8470538
hobp_table_access_counter : 49135027
sab_access_counter : 20901230
srq_access_counter : 14691372

morteza: end
CPU 0 L1D next line prefetcher final stats

DRAM Statistics
 CHANNEL 0
 RQ ROW_BUFFER_HIT:      47824  ROW_BUFFER_MISS:     181482
 DBUS_CONGESTED:     100873
 WQ ROW_BUFFER_HIT:      10486  ROW_BUFFER_MISS:      42774  FULL:          0

 AVG_CONGESTED_CYCLE: 5

CPU 0 Branch Prediction Accuracy: 98.1603% MPKI: 3.89124 Average ROB Occupancy at Mispredict: 62.9315

Branch types
NOT_BRANCH: 39423755 78.8475%
BRANCH_DIRECT_JUMP: 551642 1.10328%
BRANCH_INDIRECT: 139368 0.278736%
BRANCH_CONDITIONAL: 7920858 15.8417%
BRANCH_DIRECT_CALL: 776072 1.55214%
BRANCH_INDIRECT_CALL: 194644 0.389288%
BRANCH_RETURN: 993311 1.98662%
BRANCH_OTHER: 0 0%

