Initialize SIGNATURE TABLE
ST_SET: 1
ST_WAY: 256
ST_TAG_BIT: 16
ST_TAG_MASK: ffff

Initialize PATTERN TABLE
PT_SET: 512
PT_WAY: 4
SIG_DELTA_BIT: 7
C_SIG_BIT: 4
C_DELTA_BIT: 4

Initialize PREFETCH FILTER
FILTER_SET: 1024
MANA initialize 
tds: 2 tdm: 4
size MANA SINGLE: 74 KB
size MANA NULTIPLE: 43 KB
size HOBPT: 5 KB
size SRQ: 0.0644531 KB
size SABs: 0.0402832 KB
size prefetch queue: 0.453125 KB
total: 122.558 KB

*** ChampSim Multicore Out-of-Order Simulator ***

Warmup Instructions: 50000000
Simulation Instructions: 50000000
Number of CPUs: 1
LLC sets: 2048
LLC ways: 16
Off-chip DRAM Size: 4096 MB Channels: 1 Width: 64-bit Data Rate: 3200 MT/s

CPU 0 runs ../dpc3_traces/server_031.champsimtrace.xz
CPU 0 L1D next line prefetcher
Heartbeat CPU 0 instructions: 10000003 cycles: 3523157 heartbeat IPC: 2.83836 cumulative IPC: 2.83836 (Simulation time: 0 hr 1 min 24 sec) 
Heartbeat CPU 0 instructions: 20000002 cycles: 7044766 heartbeat IPC: 2.83961 cumulative IPC: 2.83899 (Simulation time: 0 hr 2 min 52 sec) 
Heartbeat CPU 0 instructions: 30000002 cycles: 10566586 heartbeat IPC: 2.83944 cumulative IPC: 2.83914 (Simulation time: 0 hr 4 min 21 sec) 
Heartbeat CPU 0 instructions: 40000003 cycles: 14084139 heartbeat IPC: 2.84289 cumulative IPC: 2.84007 (Simulation time: 0 hr 5 min 49 sec) 
Heartbeat CPU 0 instructions: 50000000 cycles: 17603701 heartbeat IPC: 2.84126 cumulative IPC: 2.84031 (Simulation time: 0 hr 7 min 20 sec) 

Warmup complete CPU 0 instructions: 50000004 cycles: 17603702 (Simulation time: 0 hr 7 min 20 sec) 

Heartbeat CPU 0 instructions: 60000001 cycles: 25413042 heartbeat IPC: 1.28052 cumulative IPC: 1.28052 (Simulation time: 0 hr 8 min 49 sec) 
Heartbeat CPU 0 instructions: 70000002 cycles: 33283512 heartbeat IPC: 1.27057 cumulative IPC: 1.27553 (Simulation time: 0 hr 10 min 19 sec) 
*** Reached end of trace for Core: 0 Repeating trace: ../dpc3_traces/server_031.champsimtrace.xz
Heartbeat CPU 0 instructions: 80000000 cycles: 40989189 heartbeat IPC: 1.29774 cumulative IPC: 1.28285 (Simulation time: 0 hr 11 min 45 sec) 
Heartbeat CPU 0 instructions: 90000003 cycles: 48744851 heartbeat IPC: 1.28938 cumulative IPC: 1.28447 (Simulation time: 0 hr 13 min 8 sec) 
Heartbeat CPU 0 instructions: 100000000 cycles: 56461521 heartbeat IPC: 1.2959 cumulative IPC: 1.28674 (Simulation time: 0 hr 14 min 30 sec) 
Finished CPU 0 instructions: 50000000 cycles: 38857824 cumulative IPC: 1.28674 (Simulation time: 0 hr 14 min 30 sec) 

ChampSim completed all CPUs

Region of Interest Statistics

CPU 0 cumulative IPC: 1.28674 instructions: 50000000 cycles: 38857824

SHEET
IPC : 1.28674

L1D TOTAL     ACCESS:   19841555  HIT:   17937059  MISS:    1904496
L1D LOAD      ACCESS:    6923517  HIT:    6051685  MISS:     871832
L1D RFO       ACCESS:    6329307  HIT:    6037745  MISS:     291562
L1D PREFETCH  ACCESS:    6588731  HIT:    5847629  MISS:     741102
L1D WRITEBACK ACCESS:          0  HIT:          0  MISS:          0
L1D PREFETCH  REQUESTED:    6985966  ISSUED:    6884229  USEFUL:     175519  USELESS:     565587
L1D AVERAGE MISS LATENCY: 22.8419 cycles
L1D

SHEET
L1D-total_access : 19841555
L1D-total_hit : 17937059
L1D-total_miss : 1904496
L1D-load_access : 6923517
L1D-load_hit : 6051685
L1D-load_miss : 871832
L1D-rfo_access : 6329307
L1D-rfo_hit : 6037745
L1D-rfo_miss : 291562
L1D-prefetch_access : 6588731
L1D-prefetch_hit : 5847629
L1D-prefetch_miss : 741102
L1D-writeback_access : 0
L1D-writeback_hit : 0
L1D-writeback_miss : 0
L1D-prefetch_requested : 6985966
L1D-prefetch_issued : 6884229
L1D-prefetch_useful : 175519
L1D-prefetch_useless : 565587
L1D-Avg_miss_latency : 22.8419
L1D-Morteza_fill_l2_prefetches : 0

L1I TOTAL     ACCESS:   19267543  HIT:   15529829  MISS:    3737714
L1I LOAD      ACCESS:    9443921  HIT:    8638349  MISS:     805572
L1I RFO       ACCESS:          0  HIT:          0  MISS:          0
L1I PREFETCH  ACCESS:    9823622  HIT:    6891480  MISS:    2932142
L1I WRITEBACK ACCESS:          0  HIT:          0  MISS:          0
L1I PREFETCH  REQUESTED:   11117535  ISSUED:   11104849  USEFUL:    2255186  USELESS:     676930
L1I AVERAGE MISS LATENCY: 15.3368 cycles
L1I

SHEET
L1I-total_access : 19267543
L1I-total_hit : 15529829
L1I-total_miss : 3737714
L1I-load_access : 9443921
L1I-load_hit : 8638349
L1I-load_miss : 805572
L1I-rfo_access : 0
L1I-rfo_hit : 0
L1I-rfo_miss : 0
L1I-prefetch_access : 9823622
L1I-prefetch_hit : 6891480
L1I-prefetch_miss : 2932142
L1I-writeback_access : 0
L1I-writeback_hit : 0
L1I-writeback_miss : 0
L1I-prefetch_requested : 11117535
L1I-prefetch_issued : 11104849
L1I-prefetch_useful : 2255186
L1I-prefetch_useless : 676930
L1I-Avg_miss_latency : 15.3368
L1I-Morteza_fill_l2_prefetches : 0

L2C TOTAL     ACCESS:    7919537  HIT:    7316963  MISS:     602574
L2C LOAD      ACCESS:    1222987  HIT:    1070260  MISS:     152727
L2C RFO       ACCESS:     289698  HIT:     236821  MISS:      52877
L2C PREFETCH  ACCESS:    5790267  HIT:    5395233  MISS:     395034
L2C WRITEBACK ACCESS:     616585  HIT:     614649  MISS:       1936
L2C PREFETCH  REQUESTED:    7117178  ISSUED:    7075533  USEFUL:      16823  USELESS:     377431
L2C AVERAGE MISS LATENCY: 44.9443 cycles
L2C

SHEET
L2C-total_access : 7919537
L2C-total_hit : 7316963
L2C-total_miss : 602574
L2C-load_access : 1222987
L2C-load_hit : 1070260
L2C-load_miss : 152727
L2C-rfo_access : 289698
L2C-rfo_hit : 236821
L2C-rfo_miss : 52877
L2C-prefetch_access : 5790267
L2C-prefetch_hit : 5395233
L2C-prefetch_miss : 395034
L2C-writeback_access : 616585
L2C-writeback_hit : 614649
L2C-writeback_miss : 1936
L2C-prefetch_requested : 7117178
L2C-prefetch_issued : 7075533
L2C-prefetch_useful : 16823
L2C-prefetch_useless : 377431
L2C-Avg_miss_latency : 44.9443
L2C-Morteza_fill_l2_prefetches : 1698346

LLC TOTAL     ACCESS:    3109318  HIT:    3013237  MISS:      96081
LLC LOAD      ACCESS:     152700  HIT:     133325  MISS:      19375
LLC RFO       ACCESS:      52875  HIT:      48550  MISS:       4325
LLC PREFETCH  ACCESS:    2807094  HIT:    2735425  MISS:      71669
LLC WRITEBACK ACCESS:      96649  HIT:      95937  MISS:        712
LLC PREFETCH  REQUESTED:          0  ISSUED:          0  USEFUL:       3120  USELESS:      66912
LLC AVERAGE MISS LATENCY: 165.944 cycles
LLC

SHEET
LLC-total_access : 3109318
LLC-total_hit : 3013237
LLC-total_miss : 96081
LLC-load_access : 152700
LLC-load_hit : 133325
LLC-load_miss : 19375
LLC-rfo_access : 52875
LLC-rfo_hit : 48550
LLC-rfo_miss : 4325
LLC-prefetch_access : 2807094
LLC-prefetch_hit : 2735425
LLC-prefetch_miss : 71669
LLC-writeback_access : 96649
LLC-writeback_hit : 95937
LLC-writeback_miss : 712
LLC-prefetch_requested : 0
LLC-prefetch_issued : 0
LLC-prefetch_useful : 3120
LLC-prefetch_useless : 66912
LLC-Avg_miss_latency : 165.944
LLC-Morteza_fill_l2_prefetches : 2376888

Major fault: 0 Minor fault: 6112



Printing Logs
statHeadFound: 1787354
statHeadMissing: 1824429
statStreamBufferHit: 10772667
statPrefetchEntryFound: 8088115
statCompactorMatch: 10974764
statStreamTrackerLookup: 14384450
statRecord: 3409686
statGetPointer: 3611783
statEnqueuePrefetch: 22169663
statPrefetchQueueIsFull: 16
StreamBufferHitRate: 0.748911
Regions' size: 2297
next_region_correct: 2341626
next_region_wrong: 1065755
next_region_correct_prediction: 0.687222
statStreamBufferLookups: 143844500
statL1iLookups: 177357304
statCompactorLookups: 230151200
morteza: start

SHEET
mana_table_access_counter : 7137808
mana_table_multiple_access_counter : 6150631
hobp_table_access_counter : 50626599
sab_access_counter : 18860782
srq_access_counter : 16724869

morteza: end
CPU 0 L1D next line prefetcher final stats

DRAM Statistics
 CHANNEL 0
 RQ ROW_BUFFER_HIT:      29479  ROW_BUFFER_MISS:      65883
 DBUS_CONGESTED:      38891
 WQ ROW_BUFFER_HIT:       1037  ROW_BUFFER_MISS:       5362  FULL:          0

 AVG_CONGESTED_CYCLE: 5

CPU 0 Branch Prediction Accuracy: 99.6894% MPKI: 0.58048 Average ROB Occupancy at Mispredict: 132.844

Branch types
NOT_BRANCH: 40655615 81.3112%
BRANCH_DIRECT_JUMP: 546484 1.09297%
BRANCH_INDIRECT: 172433 0.344866%
BRANCH_CONDITIONAL: 6207578 12.4152%
BRANCH_DIRECT_CALL: 1018498 2.037%
BRANCH_INDIRECT_CALL: 190373 0.380746%
BRANCH_RETURN: 1208857 2.41771%
BRANCH_OTHER: 0 0%

