Initialize SIGNATURE TABLE
ST_SET: 1
ST_WAY: 256
ST_TAG_BIT: 16
ST_TAG_MASK: ffff

Initialize PATTERN TABLE
PT_SET: 512
PT_WAY: 4
SIG_DELTA_BIT: 7
C_SIG_BIT: 4
C_DELTA_BIT: 4

Initialize PREFETCH FILTER
FILTER_SET: 1024
MANA initialize 
tds: 2 tdm: 4
size MANA SINGLE: 74 KB
size MANA NULTIPLE: 43 KB
size HOBPT: 5 KB
size SRQ: 0.0644531 KB
size SABs: 0.0402832 KB
size prefetch queue: 0.453125 KB
total: 122.558 KB

*** ChampSim Multicore Out-of-Order Simulator ***

Warmup Instructions: 50000000
Simulation Instructions: 50000000
Number of CPUs: 1
LLC sets: 2048
LLC ways: 16
Off-chip DRAM Size: 4096 MB Channels: 1 Width: 64-bit Data Rate: 3200 MT/s

CPU 0 runs ../dpc3_traces/server_022.champsimtrace.xz
CPU 0 L1D next line prefetcher
Heartbeat CPU 0 instructions: 10000002 cycles: 3623793 heartbeat IPC: 2.75954 cumulative IPC: 2.75954 (Simulation time: 0 hr 1 min 29 sec) 
Heartbeat CPU 0 instructions: 20000001 cycles: 7253782 heartbeat IPC: 2.75483 cumulative IPC: 2.75718 (Simulation time: 0 hr 2 min 55 sec) 
Heartbeat CPU 0 instructions: 30000003 cycles: 10877398 heartbeat IPC: 2.75967 cumulative IPC: 2.75801 (Simulation time: 0 hr 4 min 22 sec) 
Heartbeat CPU 0 instructions: 40000003 cycles: 14508719 heartbeat IPC: 2.75382 cumulative IPC: 2.75696 (Simulation time: 0 hr 5 min 48 sec) 
Heartbeat CPU 0 instructions: 50000002 cycles: 18129816 heartbeat IPC: 2.76159 cumulative IPC: 2.75789 (Simulation time: 0 hr 7 min 18 sec) 

Warmup complete CPU 0 instructions: 50000002 cycles: 18129816 (Simulation time: 0 hr 7 min 18 sec) 

Heartbeat CPU 0 instructions: 60000000 cycles: 35178532 heartbeat IPC: 0.586554 cumulative IPC: 0.586554 (Simulation time: 0 hr 9 min 11 sec) 
Heartbeat CPU 0 instructions: 70000001 cycles: 52455844 heartbeat IPC: 0.578794 cumulative IPC: 0.582648 (Simulation time: 0 hr 11 min 7 sec) 
Heartbeat CPU 0 instructions: 80000001 cycles: 69429314 heartbeat IPC: 0.589155 cumulative IPC: 0.584801 (Simulation time: 0 hr 13 min 6 sec) 
Heartbeat CPU 0 instructions: 90000003 cycles: 86756876 heartbeat IPC: 0.577115 cumulative IPC: 0.58286 (Simulation time: 0 hr 15 min 10 sec) 
Heartbeat CPU 0 instructions: 100000003 cycles: 103773786 heartbeat IPC: 0.587651 cumulative IPC: 0.583812 (Simulation time: 0 hr 17 min 9 sec) 
Finished CPU 0 instructions: 50000001 cycles: 85643970 cumulative IPC: 0.583812 (Simulation time: 0 hr 17 min 9 sec) 

ChampSim completed all CPUs

Region of Interest Statistics

CPU 0 cumulative IPC: 0.583812 instructions: 50000001 cycles: 85643970

SHEET
IPC : 0.583812

L1D TOTAL     ACCESS:   18752231  HIT:   16541430  MISS:    2210801
L1D LOAD      ACCESS:    7072403  HIT:    6362175  MISS:     710228
L1D RFO       ACCESS:    5903315  HIT:    4923876  MISS:     979439
L1D PREFETCH  ACCESS:    5776513  HIT:    5255379  MISS:     521134
L1D WRITEBACK ACCESS:          0  HIT:          0  MISS:          0
L1D PREFETCH  REQUESTED:    7114062  ISSUED:    6906502  USEFUL:     199895  USELESS:     321244
L1D AVERAGE MISS LATENCY: 178.736 cycles
L1D

SHEET
L1D-total_access : 18752231
L1D-total_hit : 16541430
L1D-total_miss : 2210801
L1D-load_access : 7072403
L1D-load_hit : 6362175
L1D-load_miss : 710228
L1D-rfo_access : 5903315
L1D-rfo_hit : 4923876
L1D-rfo_miss : 979439
L1D-prefetch_access : 5776513
L1D-prefetch_hit : 5255379
L1D-prefetch_miss : 521134
L1D-writeback_access : 0
L1D-writeback_hit : 0
L1D-writeback_miss : 0
L1D-prefetch_requested : 7114062
L1D-prefetch_issued : 6906502
L1D-prefetch_useful : 199895
L1D-prefetch_useless : 321244
L1D-Avg_miss_latency : 178.736
L1D-Morteza_fill_l2_prefetches : 0

L1I TOTAL     ACCESS:   17885817  HIT:   15387936  MISS:    2497881
L1I LOAD      ACCESS:   10029463  HIT:    9691075  MISS:     338388
L1I RFO       ACCESS:          0  HIT:          0  MISS:          0
L1I PREFETCH  ACCESS:    7856354  HIT:    5696861  MISS:    2159493
L1I WRITEBACK ACCESS:          0  HIT:          0  MISS:          0
L1I PREFETCH  REQUESTED:    8520086  ISSUED:    8503192  USEFUL:    2081784  USELESS:      77709
L1I AVERAGE MISS LATENCY: 16.1827 cycles
L1I

SHEET
L1I-total_access : 17885817
L1I-total_hit : 15387936
L1I-total_miss : 2497881
L1I-load_access : 10029463
L1I-load_hit : 9691075
L1I-load_miss : 338388
L1I-rfo_access : 0
L1I-rfo_hit : 0
L1I-rfo_miss : 0
L1I-prefetch_access : 7856354
L1I-prefetch_hit : 5696861
L1I-prefetch_miss : 2159493
L1I-writeback_access : 0
L1I-writeback_hit : 0
L1I-writeback_miss : 0
L1I-prefetch_requested : 8520086
L1I-prefetch_issued : 8503192
L1I-prefetch_useful : 2081784
L1I-prefetch_useless : 77709
L1I-Avg_miss_latency : 16.1827
L1I-Morteza_fill_l2_prefetches : 0

L2C TOTAL     ACCESS:    6839003  HIT:    4966126  MISS:    1872877
L2C LOAD      ACCESS:     581248  HIT:     327676  MISS:     253572
L2C RFO       ACCESS:     979035  HIT:      21408  MISS:     957627
L2C PREFETCH  ACCESS:    4093545  HIT:    3434896  MISS:     658649
L2C WRITEBACK ACCESS:    1185175  HIT:    1182146  MISS:       3029
L2C PREFETCH  REQUESTED:    3912839  ISSUED:    3907824  USEFUL:      27130  USELESS:     631457
L2C AVERAGE MISS LATENCY: 217.5 cycles
L2C

SHEET
L2C-total_access : 6839003
L2C-total_hit : 4966126
L2C-total_miss : 1872877
L2C-load_access : 581248
L2C-load_hit : 327676
L2C-load_miss : 253572
L2C-rfo_access : 979035
L2C-rfo_hit : 21408
L2C-rfo_miss : 957627
L2C-prefetch_access : 4093545
L2C-prefetch_hit : 3434896
L2C-prefetch_miss : 658649
L2C-writeback_access : 1185175
L2C-writeback_hit : 1182146
L2C-writeback_miss : 3029
L2C-prefetch_requested : 3912839
L2C-prefetch_issued : 3907824
L2C-prefetch_useful : 27130
L2C-prefetch_useless : 631457
L2C-Avg_miss_latency : 217.5
L2C-Morteza_fill_l2_prefetches : 960443

LLC TOTAL     ACCESS:    4045142  HIT:    2650900  MISS:    1394242
LLC LOAD      ACCESS:     253415  HIT:     177788  MISS:      75627
LLC RFO       ACCESS:     957621  HIT:     139002  MISS:     818619
LLC PREFETCH  ACCESS:    1716369  HIT:    1218407  MISS:     497962
LLC WRITEBACK ACCESS:    1117737  HIT:    1115703  MISS:       2034
LLC PREFETCH  REQUESTED:          0  ISSUED:          0  USEFUL:      28073  USELESS:     470297
LLC AVERAGE MISS LATENCY: 287.851 cycles
LLC

SHEET
LLC-total_access : 4045142
LLC-total_hit : 2650900
LLC-total_miss : 1394242
LLC-load_access : 253415
LLC-load_hit : 177788
LLC-load_miss : 75627
LLC-rfo_access : 957621
LLC-rfo_hit : 139002
LLC-rfo_miss : 818619
LLC-prefetch_access : 1716369
LLC-prefetch_hit : 1218407
LLC-prefetch_miss : 497962
LLC-writeback_access : 1117737
LLC-writeback_hit : 1115703
LLC-writeback_miss : 2034
LLC-prefetch_requested : 0
LLC-prefetch_issued : 0
LLC-prefetch_useful : 28073
LLC-prefetch_useless : 470297
LLC-Avg_miss_latency : 287.851
LLC-Morteza_fill_l2_prefetches : 880663

Major fault: 0 Minor fault: 23562



Printing Logs
statHeadFound: 1005499
statHeadMissing: 2148246
statStreamBufferHit: 10423104
statPrefetchEntryFound: 5543936
statCompactorMatch: 10821681
statStreamTrackerLookup: 13576849
statRecord: 2755168
statGetPointer: 3153745
statEnqueuePrefetch: 16915228
statPrefetchQueueIsFull: 0
StreamBufferHitRate: 0.767712
Regions' size: 1405
next_region_correct: 2219129
next_region_wrong: 534626
next_region_correct_prediction: 0.805856
statStreamBufferLookups: 135768490
statL1iLookups: 135321824
statCompactorLookups: 217229584
morteza: start

SHEET
mana_table_access_counter : 5732853
mana_table_multiple_access_counter : 3573341
hobp_table_access_counter : 41797216
sab_access_counter : 15967040
srq_access_counter : 15644552

morteza: end
CPU 0 L1D next line prefetcher final stats

DRAM Statistics
 CHANNEL 0
 RQ ROW_BUFFER_HIT:     398670  ROW_BUFFER_MISS:     993217
 DBUS_CONGESTED:    1429294
 WQ ROW_BUFFER_HIT:     273594  ROW_BUFFER_MISS:     629076  FULL:          0

 AVG_CONGESTED_CYCLE: 6

CPU 0 Branch Prediction Accuracy: 99.8317% MPKI: 0.27564 Average ROB Occupancy at Mispredict: 215.863

Branch types
NOT_BRANCH: 41811169 83.6223%
BRANCH_DIRECT_JUMP: 445742 0.891484%
BRANCH_INDIRECT: 48876 0.097752%
BRANCH_CONDITIONAL: 5859410 11.7188%
BRANCH_DIRECT_CALL: 758268 1.51654%
BRANCH_INDIRECT_CALL: 159103 0.318206%
BRANCH_RETURN: 917372 1.83474%
BRANCH_OTHER: 0 0%

