Initialize SIGNATURE TABLE
ST_SET: 1
ST_WAY: 256
ST_TAG_BIT: 16
ST_TAG_MASK: ffff

Initialize PATTERN TABLE
PT_SET: 512
PT_WAY: 4
SIG_DELTA_BIT: 7
C_SIG_BIT: 4
C_DELTA_BIT: 4

Initialize PREFETCH FILTER
FILTER_SET: 1024
MANA initialize 
tds: 2 tdm: 4
size MANA SINGLE: 74 KB
size MANA NULTIPLE: 43 KB
size HOBPT: 5 KB
size SRQ: 0.0644531 KB
size SABs: 0.0402832 KB
size prefetch queue: 0.453125 KB
total: 122.558 KB

*** ChampSim Multicore Out-of-Order Simulator ***

Warmup Instructions: 50000000
Simulation Instructions: 50000000
Number of CPUs: 1
LLC sets: 2048
LLC ways: 16
Off-chip DRAM Size: 4096 MB Channels: 1 Width: 64-bit Data Rate: 3200 MT/s

CPU 0 runs ../dpc3_traces/server_013.champsimtrace.xz
CPU 0 L1D next line prefetcher
Heartbeat CPU 0 instructions: 10000000 cycles: 3213071 heartbeat IPC: 3.11229 cumulative IPC: 3.11229 (Simulation time: 0 hr 1 min 21 sec) 
Heartbeat CPU 0 instructions: 20000001 cycles: 6414920 heartbeat IPC: 3.1232 cumulative IPC: 3.11773 (Simulation time: 0 hr 2 min 40 sec) 
Heartbeat CPU 0 instructions: 30000002 cycles: 9620380 heartbeat IPC: 3.11968 cumulative IPC: 3.11838 (Simulation time: 0 hr 4 min 7 sec) 
Heartbeat CPU 0 instructions: 40000002 cycles: 12821625 heartbeat IPC: 3.12378 cumulative IPC: 3.11973 (Simulation time: 0 hr 5 min 28 sec) 
Heartbeat CPU 0 instructions: 50000000 cycles: 16022327 heartbeat IPC: 3.12431 cumulative IPC: 3.12065 (Simulation time: 0 hr 6 min 50 sec) 

Warmup complete CPU 0 instructions: 50000004 cycles: 16022328 (Simulation time: 0 hr 6 min 50 sec) 

Heartbeat CPU 0 instructions: 60000002 cycles: 23716011 heartbeat IPC: 1.29977 cumulative IPC: 1.29977 (Simulation time: 0 hr 8 min 4 sec) 
Heartbeat CPU 0 instructions: 70000002 cycles: 31603116 heartbeat IPC: 1.26789 cumulative IPC: 1.28363 (Simulation time: 0 hr 9 min 18 sec) 
Heartbeat CPU 0 instructions: 80000003 cycles: 38953477 heartbeat IPC: 1.36048 cumulative IPC: 1.30826 (Simulation time: 0 hr 10 min 28 sec) 
Heartbeat CPU 0 instructions: 90000003 cycles: 46497270 heartbeat IPC: 1.32559 cumulative IPC: 1.31255 (Simulation time: 0 hr 11 min 41 sec) 
Heartbeat CPU 0 instructions: 100000003 cycles: 54026644 heartbeat IPC: 1.32813 cumulative IPC: 1.31564 (Simulation time: 0 hr 12 min 55 sec) 
Finished CPU 0 instructions: 50000003 cycles: 38004317 cumulative IPC: 1.31564 (Simulation time: 0 hr 12 min 55 sec) 

ChampSim completed all CPUs

Region of Interest Statistics

CPU 0 cumulative IPC: 1.31564 instructions: 50000003 cycles: 38004317

SHEET
IPC : 1.31564

L1D TOTAL     ACCESS:   17443483  HIT:   16376687  MISS:    1066796
L1D LOAD      ACCESS:    6372421  HIT:    5872597  MISS:     499824
L1D RFO       ACCESS:    4935724  HIT:    4855424  MISS:      80300
L1D PREFETCH  ACCESS:    6135338  HIT:    5648666  MISS:     486672
L1D WRITEBACK ACCESS:          0  HIT:          0  MISS:          0
L1D PREFETCH  REQUESTED:    6408503  ISSUED:    6313758  USEFUL:     134797  USELESS:     351884
L1D AVERAGE MISS LATENCY: 41.5259 cycles
L1D

SHEET
L1D-total_access : 17443483
L1D-total_hit : 16376687
L1D-total_miss : 1066796
L1D-load_access : 6372421
L1D-load_hit : 5872597
L1D-load_miss : 499824
L1D-rfo_access : 4935724
L1D-rfo_hit : 4855424
L1D-rfo_miss : 80300
L1D-prefetch_access : 6135338
L1D-prefetch_hit : 5648666
L1D-prefetch_miss : 486672
L1D-writeback_access : 0
L1D-writeback_hit : 0
L1D-writeback_miss : 0
L1D-prefetch_requested : 6408503
L1D-prefetch_issued : 6313758
L1D-prefetch_useful : 134797
L1D-prefetch_useless : 351884
L1D-Avg_miss_latency : 41.5259
L1D-Morteza_fill_l2_prefetches : 0

L1I TOTAL     ACCESS:   18699311  HIT:   16819452  MISS:    1879859
L1I LOAD      ACCESS:    8637063  HIT:    8288452  MISS:     348611
L1I RFO       ACCESS:          0  HIT:          0  MISS:          0
L1I PREFETCH  ACCESS:   10062248  HIT:    8531000  MISS:    1531248
L1I WRITEBACK ACCESS:          0  HIT:          0  MISS:          0
L1I PREFETCH  REQUESTED:   11263752  ISSUED:   11122945  USEFUL:    1083845  USELESS:     447382
L1I AVERAGE MISS LATENCY: 29.866 cycles
L1I

SHEET
L1I-total_access : 18699311
L1I-total_hit : 16819452
L1I-total_miss : 1879859
L1I-load_access : 8637063
L1I-load_hit : 8288452
L1I-load_miss : 348611
L1I-rfo_access : 0
L1I-rfo_hit : 0
L1I-rfo_miss : 0
L1I-prefetch_access : 10062248
L1I-prefetch_hit : 8531000
L1I-prefetch_miss : 1531248
L1I-writeback_access : 0
L1I-writeback_hit : 0
L1I-writeback_miss : 0
L1I-prefetch_requested : 11263752
L1I-prefetch_issued : 11122945
L1I-prefetch_useful : 1083845
L1I-prefetch_useless : 447382
L1I-Avg_miss_latency : 29.866
L1I-Morteza_fill_l2_prefetches : 0

L2C TOTAL     ACCESS:    3754330  HIT:    2405028  MISS:    1349302
L2C LOAD      ACCESS:     664746  HIT:     338934  MISS:     325812
L2C RFO       ACCESS:      78994  HIT:      31888  MISS:      47106
L2C PREFETCH  ACCESS:    2734779  HIT:    1760029  MISS:     974750
L2C WRITEBACK ACCESS:     275811  HIT:     274177  MISS:       1634
L2C PREFETCH  REQUESTED:    3477833  ISSUED:    3474997  USEFUL:      49325  USELESS:     925095
L2C AVERAGE MISS LATENCY: 46.3014 cycles
L2C

SHEET
L2C-total_access : 3754330
L2C-total_hit : 2405028
L2C-total_miss : 1349302
L2C-load_access : 664746
L2C-load_hit : 338934
L2C-load_miss : 325812
L2C-rfo_access : 78994
L2C-rfo_hit : 31888
L2C-rfo_miss : 47106
L2C-prefetch_access : 2734779
L2C-prefetch_hit : 1760029
L2C-prefetch_miss : 974750
L2C-writeback_access : 275811
L2C-writeback_hit : 274177
L2C-writeback_miss : 1634
L2C-prefetch_requested : 3477833
L2C-prefetch_issued : 3474997
L2C-prefetch_useful : 49325
L2C-prefetch_useless : 925095
L2C-Avg_miss_latency : 46.3014
L2C-Morteza_fill_l2_prefetches : 533279

LLC TOTAL     ACCESS:    2514040  HIT:    2358143  MISS:     155897
LLC LOAD      ACCESS:     325473  HIT:     302284  MISS:      23189
LLC RFO       ACCESS:      47096  HIT:      37588  MISS:       9508
LLC PREFETCH  ACCESS:    1970646  HIT:    1847653  MISS:     122993
LLC WRITEBACK ACCESS:     170825  HIT:     170618  MISS:        207
LLC PREFETCH  REQUESTED:          0  ISSUED:          0  USEFUL:      11649  USELESS:     109400
LLC AVERAGE MISS LATENCY: 174.071 cycles
LLC

SHEET
LLC-total_access : 2514040
LLC-total_hit : 2358143
LLC-total_miss : 155897
LLC-load_access : 325473
LLC-load_hit : 302284
LLC-load_miss : 23189
LLC-rfo_access : 47096
LLC-rfo_hit : 37588
LLC-rfo_miss : 9508
LLC-prefetch_access : 1970646
LLC-prefetch_hit : 1847653
LLC-prefetch_miss : 122993
LLC-writeback_access : 170825
LLC-writeback_hit : 170618
LLC-writeback_miss : 207
LLC-prefetch_requested : 0
LLC-prefetch_issued : 0
LLC-prefetch_useful : 11649
LLC-prefetch_useless : 109400
LLC-Avg_miss_latency : 174.071
LLC-Morteza_fill_l2_prefetches : 994936

Major fault: 0 Minor fault: 6264



Printing Logs
statHeadFound: 1476039
statHeadMissing: 1071566
statStreamBufferHit: 9518149
statPrefetchEntryFound: 6603393
statCompactorMatch: 9756290
statStreamTrackerLookup: 12065754
statRecord: 2309464
statGetPointer: 2547605
statEnqueuePrefetch: 22339521
statPrefetchQueueIsFull: 1674
StreamBufferHitRate: 0.788857
Regions' size: 4304
next_region_correct: 1814103
next_region_wrong: 491049
next_region_correct_prediction: 0.786978
statStreamBufferLookups: 120657540
statL1iLookups: 178716168
statCompactorLookups: 193052064
morteza: start

SHEET
mana_table_access_counter : 4117295
mana_table_multiple_access_counter : 6279426
hobp_table_access_counter : 36234027
sab_access_counter : 16121542
srq_access_counter : 13222240

morteza: end
CPU 0 L1D next line prefetcher final stats

DRAM Statistics
 CHANNEL 0
 RQ ROW_BUFFER_HIT:      26442  ROW_BUFFER_MISS:     129238
 DBUS_CONGESTED:      71713
 WQ ROW_BUFFER_HIT:      11883  ROW_BUFFER_MISS:      50827  FULL:          0

 AVG_CONGESTED_CYCLE: 5

CPU 0 Branch Prediction Accuracy: 99.4114% MPKI: 1.0933 Average ROB Occupancy at Mispredict: 108.769

Branch types
NOT_BRANCH: 40713247 81.4265%
BRANCH_DIRECT_JUMP: 463701 0.927402%
BRANCH_INDIRECT: 146544 0.293088%
BRANCH_CONDITIONAL: 6981953 13.9639%
BRANCH_DIRECT_CALL: 665005 1.33001%
BRANCH_INDIRECT_CALL: 165152 0.330304%
BRANCH_RETURN: 864313 1.72863%
BRANCH_OTHER: 0 0%

