Initialize SIGNATURE TABLE
ST_SET: 1
ST_WAY: 256
ST_TAG_BIT: 16
ST_TAG_MASK: ffff

Initialize PATTERN TABLE
PT_SET: 512
PT_WAY: 4
SIG_DELTA_BIT: 7
C_SIG_BIT: 4
C_DELTA_BIT: 4

Initialize PREFETCH FILTER
FILTER_SET: 1024
MANA initialize 
tds: 2 tdm: 4
size MANA SINGLE: 74 KB
size MANA NULTIPLE: 43 KB
size HOBPT: 5 KB
size SRQ: 0.0644531 KB
size SABs: 0.0402832 KB
size prefetch queue: 0.453125 KB
total: 122.558 KB

*** ChampSim Multicore Out-of-Order Simulator ***

Warmup Instructions: 50000000
Simulation Instructions: 50000000
Number of CPUs: 1
LLC sets: 2048
LLC ways: 16
Off-chip DRAM Size: 4096 MB Channels: 1 Width: 64-bit Data Rate: 3200 MT/s

CPU 0 runs ../dpc3_traces/server_010.champsimtrace.xz
CPU 0 L1D next line prefetcher
Heartbeat CPU 0 instructions: 10000000 cycles: 3196398 heartbeat IPC: 3.12852 cumulative IPC: 3.12852 (Simulation time: 0 hr 1 min 17 sec) 
Heartbeat CPU 0 instructions: 20000002 cycles: 6388734 heartbeat IPC: 3.1325 cumulative IPC: 3.13051 (Simulation time: 0 hr 2 min 32 sec) 
Heartbeat CPU 0 instructions: 30000001 cycles: 9584363 heartbeat IPC: 3.12927 cumulative IPC: 3.1301 (Simulation time: 0 hr 3 min 55 sec) 
Heartbeat CPU 0 instructions: 40000000 cycles: 12776158 heartbeat IPC: 3.13303 cumulative IPC: 3.13083 (Simulation time: 0 hr 5 min 12 sec) 
Heartbeat CPU 0 instructions: 50000003 cycles: 15973801 heartbeat IPC: 3.1273 cumulative IPC: 3.13013 (Simulation time: 0 hr 6 min 34 sec) 

Warmup complete CPU 0 instructions: 50000003 cycles: 15973801 (Simulation time: 0 hr 6 min 34 sec) 

Heartbeat CPU 0 instructions: 60000001 cycles: 23335858 heartbeat IPC: 1.35832 cumulative IPC: 1.35832 (Simulation time: 0 hr 7 min 48 sec) 
Heartbeat CPU 0 instructions: 70000000 cycles: 30778348 heartbeat IPC: 1.34364 cumulative IPC: 1.35094 (Simulation time: 0 hr 8 min 55 sec) 
Heartbeat CPU 0 instructions: 80000003 cycles: 38310389 heartbeat IPC: 1.32766 cumulative IPC: 1.34309 (Simulation time: 0 hr 10 min 7 sec) 
Heartbeat CPU 0 instructions: 90000002 cycles: 45568490 heartbeat IPC: 1.37777 cumulative IPC: 1.35159 (Simulation time: 0 hr 11 min 16 sec) 
Heartbeat CPU 0 instructions: 100000003 cycles: 66273197 heartbeat IPC: 0.482982 cumulative IPC: 0.994048 (Simulation time: 0 hr 13 min 11 sec) 
Finished CPU 0 instructions: 50000000 cycles: 50299396 cumulative IPC: 0.994048 (Simulation time: 0 hr 13 min 11 sec) 

ChampSim completed all CPUs

Region of Interest Statistics

CPU 0 cumulative IPC: 0.994048 instructions: 50000000 cycles: 50299396

SHEET
IPC : 0.994048

L1D TOTAL     ACCESS:   20013767  HIT:   16788232  MISS:    3225535
L1D LOAD      ACCESS:    7760135  HIT:    6168343  MISS:    1591792
L1D RFO       ACCESS:    4714868  HIT:    4620301  MISS:      94567
L1D PREFETCH  ACCESS:    7538764  HIT:    5999588  MISS:    1539176
L1D WRITEBACK ACCESS:          0  HIT:          0  MISS:          0
L1D PREFETCH  REQUESTED:    7793768  ISSUED:    7696547  USEFUL:     118335  USELESS:    1420813
L1D AVERAGE MISS LATENCY: 22.6451 cycles
L1D

SHEET
L1D-total_access : 20013767
L1D-total_hit : 16788232
L1D-total_miss : 3225535
L1D-load_access : 7760135
L1D-load_hit : 6168343
L1D-load_miss : 1591792
L1D-rfo_access : 4714868
L1D-rfo_hit : 4620301
L1D-rfo_miss : 94567
L1D-prefetch_access : 7538764
L1D-prefetch_hit : 5999588
L1D-prefetch_miss : 1539176
L1D-writeback_access : 0
L1D-writeback_hit : 0
L1D-writeback_miss : 0
L1D-prefetch_requested : 7793768
L1D-prefetch_issued : 7696547
L1D-prefetch_useful : 118335
L1D-prefetch_useless : 1420813
L1D-Avg_miss_latency : 22.6451
L1D-Morteza_fill_l2_prefetches : 0

L1I TOTAL     ACCESS:   19923432  HIT:   18360411  MISS:    1563021
L1I LOAD      ACCESS:    9907121  HIT:    9611196  MISS:     295925
L1I RFO       ACCESS:          0  HIT:          0  MISS:          0
L1I PREFETCH  ACCESS:   10016311  HIT:    8749215  MISS:    1267096
L1I WRITEBACK ACCESS:          0  HIT:          0  MISS:          0
L1I PREFETCH  REQUESTED:   11115765  ISSUED:   11012246  USEFUL:     907686  USELESS:     359474
L1I AVERAGE MISS LATENCY: 29.6951 cycles
L1I

SHEET
L1I-total_access : 19923432
L1I-total_hit : 18360411
L1I-total_miss : 1563021
L1I-load_access : 9907121
L1I-load_hit : 9611196
L1I-load_miss : 295925
L1I-rfo_access : 0
L1I-rfo_hit : 0
L1I-rfo_miss : 0
L1I-prefetch_access : 10016311
L1I-prefetch_hit : 8749215
L1I-prefetch_miss : 1267096
L1I-writeback_access : 0
L1I-writeback_hit : 0
L1I-writeback_miss : 0
L1I-prefetch_requested : 11115765
L1I-prefetch_issued : 11012246
L1I-prefetch_useful : 907686
L1I-prefetch_useless : 359474
L1I-Avg_miss_latency : 29.6951
L1I-Morteza_fill_l2_prefetches : 0

L2C TOTAL     ACCESS:    6095666  HIT:    4970913  MISS:    1124753
L2C LOAD      ACCESS:    1728866  HIT:    1455362  MISS:     273504
L2C RFO       ACCESS:      93527  HIT:      49159  MISS:      44368
L2C PREFETCH  ACCESS:    4007911  HIT:    3201966  MISS:     805945
L2C WRITEBACK ACCESS:     265362  HIT:     264426  MISS:        936
L2C PREFETCH  REQUESTED:    6021953  ISSUED:    6019269  USEFUL:      40286  USELESS:     766433
L2C AVERAGE MISS LATENCY: 46.655 cycles
L2C

SHEET
L2C-total_access : 6095666
L2C-total_hit : 4970913
L2C-total_miss : 1124753
L2C-load_access : 1728866
L2C-load_hit : 1455362
L2C-load_miss : 273504
L2C-rfo_access : 93527
L2C-rfo_hit : 49159
L2C-rfo_miss : 44368
L2C-prefetch_access : 4007911
L2C-prefetch_hit : 3201966
L2C-prefetch_miss : 805945
L2C-writeback_access : 265362
L2C-writeback_hit : 264426
L2C-writeback_miss : 936
L2C-prefetch_requested : 6021953
L2C-prefetch_issued : 6019269
L2C-prefetch_useful : 40286
L2C-prefetch_useless : 766433
L2C-Avg_miss_latency : 46.655
L2C-Morteza_fill_l2_prefetches : 1041731

LLC TOTAL     ACCESS:    2422991  HIT:    2293914  MISS:     129077
LLC LOAD      ACCESS:     273243  HIT:     254936  MISS:      18307
LLC RFO       ACCESS:      44362  HIT:      34997  MISS:       9365
LLC PREFETCH  ACCESS:    1957295  HIT:    1856106  MISS:     101189
LLC WRITEBACK ACCESS:     148091  HIT:     147875  MISS:        216
LLC PREFETCH  REQUESTED:          0  ISSUED:          0  USEFUL:       9792  USELESS:      91175
LLC AVERAGE MISS LATENCY: 174.016 cycles
LLC

SHEET
LLC-total_access : 2422991
LLC-total_hit : 2293914
LLC-total_miss : 129077
LLC-load_access : 273243
LLC-load_hit : 254936
LLC-load_miss : 18307
LLC-rfo_access : 44362
LLC-rfo_hit : 34997
LLC-rfo_miss : 9365
LLC-prefetch_access : 1957295
LLC-prefetch_hit : 1856106
LLC-prefetch_miss : 101189
LLC-writeback_access : 148091
LLC-writeback_hit : 147875
LLC-writeback_miss : 216
LLC-prefetch_requested : 0
LLC-prefetch_issued : 0
LLC-prefetch_useful : 9792
LLC-prefetch_useless : 91175
LLC-Avg_miss_latency : 174.016
LLC-Morteza_fill_l2_prefetches : 1154826

Major fault: 0 Minor fault: 5655



Printing Logs
statHeadFound: 1507303
statHeadMissing: 1001755
statStreamBufferHit: 10447601
statPrefetchEntryFound: 6753585
statCompactorMatch: 10581536
statStreamTrackerLookup: 12956659
statRecord: 2375123
statGetPointer: 2509058
statEnqueuePrefetch: 22337934
statPrefetchQueueIsFull: 1115
StreamBufferHitRate: 0.80635
Regions' size: 3988
next_region_correct: 1874423
next_region_wrong: 496704
next_region_correct_prediction: 0.79052
statStreamBufferLookups: 129566590
statL1iLookups: 178703472
statCompactorLookups: 207306544
morteza: start

SHEET
mana_table_access_counter : 4342325
mana_table_multiple_access_counter : 6300451
hobp_table_access_counter : 36337083
sab_access_counter : 17201186
srq_access_counter : 13574290

morteza: end
CPU 0 L1D next line prefetcher final stats

DRAM Statistics
 CHANNEL 0
 RQ ROW_BUFFER_HIT:      19701  ROW_BUFFER_MISS:     109154
 DBUS_CONGESTED:      61693
 WQ ROW_BUFFER_HIT:      10232  ROW_BUFFER_MISS:      45098  FULL:          0

 AVG_CONGESTED_CYCLE: 5

CPU 0 Branch Prediction Accuracy: 99.5528% MPKI: 0.89798 Average ROB Occupancy at Mispredict: 115.693

Branch types
NOT_BRANCH: 39958826 79.9177%
BRANCH_DIRECT_JUMP: 449946 0.899892%
BRANCH_INDIRECT: 140210 0.28042%
BRANCH_CONDITIONAL: 7679680 15.3594%
BRANCH_DIRECT_CALL: 701578 1.40316%
BRANCH_INDIRECT_CALL: 168971 0.337942%
BRANCH_RETURN: 900560 1.80112%
BRANCH_OTHER: 0 0%

