Initialize SIGNATURE TABLE
ST_SET: 1
ST_WAY: 256
ST_TAG_BIT: 16
ST_TAG_MASK: ffff

Initialize PATTERN TABLE
PT_SET: 512
PT_WAY: 4
SIG_DELTA_BIT: 7
C_SIG_BIT: 4
C_DELTA_BIT: 4

Initialize PREFETCH FILTER
FILTER_SET: 1024
MANA initialize 
tds: 2 tdm: 4
size MANA SINGLE: 74 KB
size MANA NULTIPLE: 43 KB
size HOBPT: 5 KB
size SRQ: 0.0644531 KB
size SABs: 0.0402832 KB
size prefetch queue: 0.453125 KB
total: 122.558 KB

*** ChampSim Multicore Out-of-Order Simulator ***

Warmup Instructions: 50000000
Simulation Instructions: 50000000
Number of CPUs: 1
LLC sets: 2048
LLC ways: 16
Off-chip DRAM Size: 4096 MB Channels: 1 Width: 64-bit Data Rate: 3200 MT/s

CPU 0 runs ../dpc3_traces/server_002.champsimtrace.xz
CPU 0 L1D next line prefetcher
Heartbeat CPU 0 instructions: 10000000 cycles: 3581224 heartbeat IPC: 2.79234 cumulative IPC: 2.79234 (Simulation time: 0 hr 1 min 20 sec) 
Heartbeat CPU 0 instructions: 20000002 cycles: 7170052 heartbeat IPC: 2.78643 cumulative IPC: 2.78938 (Simulation time: 0 hr 2 min 45 sec) 
Heartbeat CPU 0 instructions: 30000000 cycles: 10710786 heartbeat IPC: 2.82427 cumulative IPC: 2.80092 (Simulation time: 0 hr 4 min 11 sec) 
Heartbeat CPU 0 instructions: 40000000 cycles: 14261031 heartbeat IPC: 2.81671 cumulative IPC: 2.80485 (Simulation time: 0 hr 5 min 34 sec) 
Heartbeat CPU 0 instructions: 50000001 cycles: 17808802 heartbeat IPC: 2.81867 cumulative IPC: 2.8076 (Simulation time: 0 hr 6 min 56 sec) 

Warmup complete CPU 0 instructions: 50000001 cycles: 17808802 (Simulation time: 0 hr 6 min 56 sec) 

Heartbeat CPU 0 instructions: 60000000 cycles: 24248558 heartbeat IPC: 1.55285 cumulative IPC: 1.55285 (Simulation time: 0 hr 8 min 29 sec) 
Heartbeat CPU 0 instructions: 70000003 cycles: 30683110 heartbeat IPC: 1.55411 cumulative IPC: 1.55348 (Simulation time: 0 hr 9 min 56 sec) 
Heartbeat CPU 0 instructions: 80000003 cycles: 37119855 heartbeat IPC: 1.55358 cumulative IPC: 1.55351 (Simulation time: 0 hr 11 min 24 sec) 
Heartbeat CPU 0 instructions: 90000002 cycles: 43554277 heartbeat IPC: 1.55414 cumulative IPC: 1.55367 (Simulation time: 0 hr 12 min 50 sec) 
Heartbeat CPU 0 instructions: 100000003 cycles: 49988627 heartbeat IPC: 1.55416 cumulative IPC: 1.55377 (Simulation time: 0 hr 14 min 11 sec) 
Finished CPU 0 instructions: 50000002 cycles: 32179825 cumulative IPC: 1.55377 (Simulation time: 0 hr 14 min 11 sec) 

ChampSim completed all CPUs

Region of Interest Statistics

CPU 0 cumulative IPC: 1.55377 instructions: 50000002 cycles: 32179825

SHEET
IPC : 1.55377

L1D TOTAL     ACCESS:   21526894  HIT:   21526086  MISS:        808
L1D LOAD      ACCESS:    6603019  HIT:    6602645  MISS:        374
L1D RFO       ACCESS:    8433156  HIT:    8433043  MISS:        113
L1D PREFETCH  ACCESS:    6490719  HIT:    6490398  MISS:        321
L1D WRITEBACK ACCESS:          0  HIT:          0  MISS:          0
L1D PREFETCH  REQUESTED:    6603075  ISSUED:    6498124  USEFUL:         91  USELESS:        231
L1D AVERAGE MISS LATENCY: 36.5198 cycles
L1D

SHEET
L1D-total_access : 21526894
L1D-total_hit : 21526086
L1D-total_miss : 808
L1D-load_access : 6603019
L1D-load_hit : 6602645
L1D-load_miss : 374
L1D-rfo_access : 8433156
L1D-rfo_hit : 8433043
L1D-rfo_miss : 113
L1D-prefetch_access : 6490719
L1D-prefetch_hit : 6490398
L1D-prefetch_miss : 321
L1D-writeback_access : 0
L1D-writeback_hit : 0
L1D-writeback_miss : 0
L1D-prefetch_requested : 6603075
L1D-prefetch_issued : 6498124
L1D-prefetch_useful : 91
L1D-prefetch_useless : 231
L1D-Avg_miss_latency : 36.5198
L1D-Morteza_fill_l2_prefetches : 0

L1I TOTAL     ACCESS:   20638640  HIT:   19583457  MISS:    1055183
L1I LOAD      ACCESS:    9770180  HIT:    9539562  MISS:     230618
L1I RFO       ACCESS:          0  HIT:          0  MISS:          0
L1I PREFETCH  ACCESS:   10868460  HIT:   10043895  MISS:     824565
L1I WRITEBACK ACCESS:          0  HIT:          0  MISS:          0
L1I PREFETCH  REQUESTED:   11536723  ISSUED:   11536723  USEFUL:     733260  USELESS:      91307
L1I AVERAGE MISS LATENCY: 11.8667 cycles
L1I

SHEET
L1I-total_access : 20638640
L1I-total_hit : 19583457
L1I-total_miss : 1055183
L1I-load_access : 9770180
L1I-load_hit : 9539562
L1I-load_miss : 230618
L1I-rfo_access : 0
L1I-rfo_hit : 0
L1I-rfo_miss : 0
L1I-prefetch_access : 10868460
L1I-prefetch_hit : 10043895
L1I-prefetch_miss : 824565
L1I-writeback_access : 0
L1I-writeback_hit : 0
L1I-writeback_miss : 0
L1I-prefetch_requested : 11536723
L1I-prefetch_issued : 11536723
L1I-prefetch_useful : 733260
L1I-prefetch_useless : 91307
L1I-Avg_miss_latency : 11.8667
L1I-Morteza_fill_l2_prefetches : 0

L2C TOTAL     ACCESS:    1297581  HIT:    1297233  MISS:        348
L2C LOAD      ACCESS:      60768  HIT:      60684  MISS:         84
L2C RFO       ACCESS:        113  HIT:        110  MISS:          3
L2C PREFETCH  ACCESS:    1236365  HIT:    1236104  MISS:        261
L2C WRITEBACK ACCESS:        335  HIT:        335  MISS:          0
L2C PREFETCH  REQUESTED:     787604  ISSUED:     787569  USEFUL:         76  USELESS:        138
L2C AVERAGE MISS LATENCY: 112.635 cycles
L2C

SHEET
L2C-total_access : 1297581
L2C-total_hit : 1297233
L2C-total_miss : 348
L2C-load_access : 60768
L2C-load_hit : 60684
L2C-load_miss : 84
L2C-rfo_access : 113
L2C-rfo_hit : 110
L2C-rfo_miss : 3
L2C-prefetch_access : 1236365
L2C-prefetch_hit : 1236104
L2C-prefetch_miss : 261
L2C-writeback_access : 335
L2C-writeback_hit : 335
L2C-writeback_miss : 0
L2C-prefetch_requested : 787604
L2C-prefetch_issued : 787569
L2C-prefetch_useful : 76
L2C-prefetch_useless : 138
L2C-Avg_miss_latency : 112.635
L2C-Morteza_fill_l2_prefetches : 248639

LLC TOTAL     ACCESS:     299725  HIT:     298942  MISS:        783
LLC LOAD      ACCESS:         84  HIT:         70  MISS:         14
LLC RFO       ACCESS:          3  HIT:          1  MISS:          2
LLC PREFETCH  ACCESS:     299539  HIT:     298773  MISS:        766
LLC WRITEBACK ACCESS:         99  HIT:         98  MISS:          1
LLC PREFETCH  REQUESTED:          0  ISSUED:          0  USEFUL:         12  USELESS:        242
LLC AVERAGE MISS LATENCY: 286.677 cycles
LLC

SHEET
LLC-total_access : 299725
LLC-total_hit : 298942
LLC-total_miss : 783
LLC-load_access : 84
LLC-load_hit : 70
LLC-load_miss : 14
LLC-rfo_access : 3
LLC-rfo_hit : 1
LLC-rfo_miss : 2
LLC-prefetch_access : 299539
LLC-prefetch_hit : 298773
LLC-prefetch_miss : 766
LLC-writeback_access : 99
LLC-writeback_hit : 98
LLC-writeback_miss : 1
LLC-prefetch_requested : 0
LLC-prefetch_issued : 0
LLC-prefetch_useful : 12
LLC-prefetch_useless : 242
LLC-Avg_miss_latency : 286.677
LLC-Morteza_fill_l2_prefetches : 298682

Major fault: 0 Minor fault: 1929



Printing Logs
statHeadFound: 1836751
statHeadMissing: 1416479
statStreamBufferHit: 11562935
statPrefetchEntryFound: 8499367
statCompactorMatch: 11102852
statStreamTrackerLookup: 14816165
statRecord: 3713313
statGetPointer: 3253230
statEnqueuePrefetch: 23004574
statPrefetchQueueIsFull: 0
StreamBufferHitRate: 0.780427
Regions' size: 2730
next_region_correct: 2541230
next_region_wrong: 1169345
next_region_correct_prediction: 0.684862
statStreamBufferLookups: 148161650
statL1iLookups: 184036592
statCompactorLookups: 237058640
morteza: start

SHEET
mana_table_access_counter : 6785827
mana_table_multiple_access_counter : 7266575
hobp_table_access_counter : 49383406
sab_access_counter : 20062302
srq_access_counter : 17877512

morteza: end
CPU 0 L1D next line prefetcher final stats

DRAM Statistics
 CHANNEL 0
 RQ ROW_BUFFER_HIT:        109  ROW_BUFFER_MISS:        673
 DBUS_CONGESTED:        454
 WQ ROW_BUFFER_HIT:         77  ROW_BUFFER_MISS:        372  FULL:          0

 AVG_CONGESTED_CYCLE: 6

CPU 0 Branch Prediction Accuracy: 99.8789% MPKI: 0.20388 Average ROB Occupancy at Mispredict: 269.219

Branch types
NOT_BRANCH: 41580695 83.1614%
BRANCH_DIRECT_JUMP: 461630 0.92326%
BRANCH_INDIRECT: 0 0%
BRANCH_CONDITIONAL: 5376437 10.7529%
BRANCH_DIRECT_CALL: 1175775 2.35155%
BRANCH_INDIRECT_CALL: 114840 0.22968%
BRANCH_RETURN: 1290625 2.58125%
BRANCH_OTHER: 0 0%

