Initialize SIGNATURE TABLE
ST_SET: 1
ST_WAY: 256
ST_TAG_BIT: 16
ST_TAG_MASK: ffff

Initialize PATTERN TABLE
PT_SET: 512
PT_WAY: 4
SIG_DELTA_BIT: 7
C_SIG_BIT: 4
C_DELTA_BIT: 4

Initialize PREFETCH FILTER
FILTER_SET: 1024
MANA initialize 
tds: 2 tdm: 4
size MANA SINGLE: 74 KB
size MANA NULTIPLE: 43 KB
size HOBPT: 5 KB
size SRQ: 0.0644531 KB
size SABs: 0.0402832 KB
size prefetch queue: 0.453125 KB
total: 122.558 KB

*** ChampSim Multicore Out-of-Order Simulator ***

Warmup Instructions: 50000000
Simulation Instructions: 50000000
Number of CPUs: 1
LLC sets: 2048
LLC ways: 16
Off-chip DRAM Size: 4096 MB Channels: 1 Width: 64-bit Data Rate: 3200 MT/s

CPU 0 runs ../dpc3_traces/server_018.champsimtrace.xz
CPU 0 L1D next line prefetcher
Heartbeat CPU 0 instructions: 10000003 cycles: 3616171 heartbeat IPC: 2.76536 cumulative IPC: 2.76536 (Simulation time: 0 hr 1 min 30 sec) 
Heartbeat CPU 0 instructions: 20000001 cycles: 7237254 heartbeat IPC: 2.7616 cumulative IPC: 2.76348 (Simulation time: 0 hr 2 min 57 sec) 
Heartbeat CPU 0 instructions: 30000003 cycles: 10712498 heartbeat IPC: 2.8775 cumulative IPC: 2.80047 (Simulation time: 0 hr 4 min 17 sec) 
Heartbeat CPU 0 instructions: 40000000 cycles: 14223880 heartbeat IPC: 2.84788 cumulative IPC: 2.81217 (Simulation time: 0 hr 5 min 47 sec) 
Heartbeat CPU 0 instructions: 50000003 cycles: 17840621 heartbeat IPC: 2.76492 cumulative IPC: 2.80259 (Simulation time: 0 hr 7 min 15 sec) 

Warmup complete CPU 0 instructions: 50000003 cycles: 17840621 (Simulation time: 0 hr 7 min 15 sec) 

Heartbeat CPU 0 instructions: 60000000 cycles: 35507324 heartbeat IPC: 0.566036 cumulative IPC: 0.566036 (Simulation time: 0 hr 9 min 12 sec) 
Heartbeat CPU 0 instructions: 70000001 cycles: 53275783 heartbeat IPC: 0.562795 cumulative IPC: 0.564411 (Simulation time: 0 hr 11 min 7 sec) 
Heartbeat CPU 0 instructions: 80000000 cycles: 70928040 heartbeat IPC: 0.5665 cumulative IPC: 0.565106 (Simulation time: 0 hr 13 min 2 sec) 
Heartbeat CPU 0 instructions: 90000002 cycles: 88643737 heartbeat IPC: 0.564471 cumulative IPC: 0.564947 (Simulation time: 0 hr 14 min 52 sec) 
Heartbeat CPU 0 instructions: 100000000 cycles: 106345155 heartbeat IPC: 0.564926 cumulative IPC: 0.564943 (Simulation time: 0 hr 16 min 46 sec) 
Finished CPU 0 instructions: 50000002 cycles: 88504537 cumulative IPC: 0.564943 (Simulation time: 0 hr 16 min 46 sec) 

ChampSim completed all CPUs

Region of Interest Statistics

CPU 0 cumulative IPC: 0.564943 instructions: 50000002 cycles: 88504537

SHEET
IPC : 0.564943

L1D TOTAL     ACCESS:   18676259  HIT:   16458530  MISS:    2217729
L1D LOAD      ACCESS:    7066000  HIT:    6337666  MISS:     728334
L1D RFO       ACCESS:    5819280  HIT:    4867041  MISS:     952239
L1D PREFETCH  ACCESS:    5790979  HIT:    5253823  MISS:     537156
L1D WRITEBACK ACCESS:          0  HIT:          0  MISS:          0
L1D PREFETCH  REQUESTED:    7106801  ISSUED:    6904127  USEFUL:     197415  USELESS:     339830
L1D AVERAGE MISS LATENCY: 174.622 cycles
L1D

SHEET
L1D-total_access : 18676259
L1D-total_hit : 16458530
L1D-total_miss : 2217729
L1D-load_access : 7066000
L1D-load_hit : 6337666
L1D-load_miss : 728334
L1D-rfo_access : 5819280
L1D-rfo_hit : 4867041
L1D-rfo_miss : 952239
L1D-prefetch_access : 5790979
L1D-prefetch_hit : 5253823
L1D-prefetch_miss : 537156
L1D-writeback_access : 0
L1D-writeback_hit : 0
L1D-writeback_miss : 0
L1D-prefetch_requested : 7106801
L1D-prefetch_issued : 6904127
L1D-prefetch_useful : 197415
L1D-prefetch_useless : 339830
L1D-Avg_miss_latency : 174.622
L1D-Morteza_fill_l2_prefetches : 0

L1I TOTAL     ACCESS:   17892307  HIT:   15428002  MISS:    2464305
L1I LOAD      ACCESS:   10008657  HIT:    9671845  MISS:     336812
L1I RFO       ACCESS:          0  HIT:          0  MISS:          0
L1I PREFETCH  ACCESS:    7883650  HIT:    5756157  MISS:    2127493
L1I WRITEBACK ACCESS:          0  HIT:          0  MISS:          0
L1I PREFETCH  REQUESTED:    8581841  ISSUED:    8563447  USEFUL:    2030799  USELESS:      96668
L1I AVERAGE MISS LATENCY: 16.5544 cycles
L1I

SHEET
L1I-total_access : 17892307
L1I-total_hit : 15428002
L1I-total_miss : 2464305
L1I-load_access : 10008657
L1I-load_hit : 9671845
L1I-load_miss : 336812
L1I-rfo_access : 0
L1I-rfo_hit : 0
L1I-rfo_miss : 0
L1I-prefetch_access : 7883650
L1I-prefetch_hit : 5756157
L1I-prefetch_miss : 2127493
L1I-writeback_access : 0
L1I-writeback_hit : 0
L1I-writeback_miss : 0
L1I-prefetch_requested : 8581841
L1I-prefetch_issued : 8563447
L1I-prefetch_useful : 2030799
L1I-prefetch_useless : 96668
L1I-Avg_miss_latency : 16.5544
L1I-Morteza_fill_l2_prefetches : 0

L2C TOTAL     ACCESS:    6829696  HIT:    4964898  MISS:    1864798
L2C LOAD      ACCESS:     611880  HIT:     341515  MISS:     270365
L2C RFO       ACCESS:     951815  HIT:      21483  MISS:     930332
L2C PREFETCH  ACCESS:    4095928  HIT:    3435552  MISS:     660376
L2C WRITEBACK ACCESS:    1170073  HIT:    1166348  MISS:       3725
L2C PREFETCH  REQUESTED:    4055733  ISSUED:    4050353  USEFUL:      29392  USELESS:     631840
L2C AVERAGE MISS LATENCY: 213.539 cycles
L2C

SHEET
L2C-total_access : 6829696
L2C-total_hit : 4964898
L2C-total_miss : 1864798
L2C-load_access : 611880
L2C-load_hit : 341515
L2C-load_miss : 270365
L2C-rfo_access : 951815
L2C-rfo_hit : 21483
L2C-rfo_miss : 930332
L2C-prefetch_access : 4095928
L2C-prefetch_hit : 3435552
L2C-prefetch_miss : 660376
L2C-writeback_access : 1170073
L2C-writeback_hit : 1166348
L2C-writeback_miss : 3725
L2C-prefetch_requested : 4055733
L2C-prefetch_issued : 4050353
L2C-prefetch_useful : 29392
L2C-prefetch_useless : 631840
L2C-Avg_miss_latency : 213.539
L2C-Morteza_fill_l2_prefetches : 995024

LLC TOTAL     ACCESS:    4071307  HIT:    2621408  MISS:    1449899
LLC LOAD      ACCESS:     270099  HIT:     171223  MISS:      98876
LLC RFO       ACCESS:     930329  HIT:     133139  MISS:     797190
LLC PREFETCH  ACCESS:    1770599  HIT:    1218870  MISS:     551729
LLC WRITEBACK ACCESS:    1100280  HIT:    1098176  MISS:       2104
LLC PREFETCH  REQUESTED:          0  ISSUED:          0  USEFUL:      30297  USELESS:     521220
LLC AVERAGE MISS LATENCY: 276.912 cycles
LLC

SHEET
LLC-total_access : 4071307
LLC-total_hit : 2621408
LLC-total_miss : 1449899
LLC-load_access : 270099
LLC-load_hit : 171223
LLC-load_miss : 98876
LLC-rfo_access : 930329
LLC-rfo_hit : 133139
LLC-rfo_miss : 797190
LLC-prefetch_access : 1770599
LLC-prefetch_hit : 1218870
LLC-prefetch_miss : 551729
LLC-writeback_access : 1100280
LLC-writeback_hit : 1098176
LLC-writeback_miss : 2104
LLC-prefetch_requested : 0
LLC-prefetch_issued : 0
LLC-prefetch_useful : 30297
LLC-prefetch_useless : 521220
LLC-Avg_miss_latency : 276.912
LLC-Morteza_fill_l2_prefetches : 890959

Major fault: 0 Minor fault: 22496



Printing Logs
statHeadFound: 987152
statHeadMissing: 1966219
statStreamBufferHit: 10217208
statPrefetchEntryFound: 5325533
statCompactorMatch: 10611208
statStreamTrackerLookup: 13170579
statRecord: 2559371
statGetPointer: 2953371
statEnqueuePrefetch: 16138887
statPrefetchQueueIsFull: 0
StreamBufferHitRate: 0.77576
Regions' size: 1445
next_region_correct: 2063904
next_region_wrong: 494014
next_region_correct_prediction: 0.806869
statStreamBufferLookups: 131705790
statL1iLookups: 129111096
statCompactorLookups: 210729264
morteza: start

SHEET
mana_table_access_counter : 5420163
mana_table_multiple_access_counter : 3453508
hobp_table_access_counter : 39192673
sab_access_counter : 15542741
srq_access_counter : 14945017

morteza: end
CPU 0 L1D next line prefetcher final stats

DRAM Statistics
 CHANNEL 0
 RQ ROW_BUFFER_HIT:     407436  ROW_BUFFER_MISS:    1040103
 DBUS_CONGESTED:    1442468
 WQ ROW_BUFFER_HIT:     263310  ROW_BUFFER_MISS:     634402  FULL:          0

 AVG_CONGESTED_CYCLE: 6

CPU 0 Branch Prediction Accuracy: 99.7114% MPKI: 0.47678 Average ROB Occupancy at Mispredict: 208.143

Branch types
NOT_BRANCH: 41741019 83.482%
BRANCH_DIRECT_JUMP: 458652 0.917304%
BRANCH_INDIRECT: 48282 0.096564%
BRANCH_CONDITIONAL: 5930882 11.8618%
BRANCH_DIRECT_CALL: 744230 1.48846%
BRANCH_INDIRECT_CALL: 166336 0.332672%
BRANCH_RETURN: 910589 1.82118%
BRANCH_OTHER: 0 0%

