Initialize SIGNATURE TABLE
ST_SET: 1
ST_WAY: 256
ST_TAG_BIT: 16
ST_TAG_MASK: ffff

Initialize PATTERN TABLE
PT_SET: 512
PT_WAY: 4
SIG_DELTA_BIT: 7
C_SIG_BIT: 4
C_DELTA_BIT: 4

Initialize PREFETCH FILTER
FILTER_SET: 1024
MANA initialize 
tds: 2 tdm: 4
size MANA SINGLE: 74 KB
size MANA NULTIPLE: 43 KB
size HOBPT: 5 KB
size SRQ: 0.0644531 KB
size SABs: 0.0402832 KB
size prefetch queue: 0.453125 KB
total: 122.558 KB

*** ChampSim Multicore Out-of-Order Simulator ***

Warmup Instructions: 50000000
Simulation Instructions: 50000000
Number of CPUs: 1
LLC sets: 2048
LLC ways: 16
Off-chip DRAM Size: 4096 MB Channels: 1 Width: 64-bit Data Rate: 3200 MT/s

CPU 0 runs ../dpc3_traces/server_015.champsimtrace.xz
CPU 0 L1D next line prefetcher
Heartbeat CPU 0 instructions: 10000002 cycles: 3519402 heartbeat IPC: 2.84139 cumulative IPC: 2.84139 (Simulation time: 0 hr 1 min 24 sec) 
Heartbeat CPU 0 instructions: 20000001 cycles: 7107075 heartbeat IPC: 2.78732 cumulative IPC: 2.8141 (Simulation time: 0 hr 2 min 50 sec) 
Heartbeat CPU 0 instructions: 30000001 cycles: 10646068 heartbeat IPC: 2.82566 cumulative IPC: 2.81794 (Simulation time: 0 hr 4 min 20 sec) 
Heartbeat CPU 0 instructions: 40000002 cycles: 14194109 heartbeat IPC: 2.81846 cumulative IPC: 2.81807 (Simulation time: 0 hr 5 min 48 sec) 
Heartbeat CPU 0 instructions: 50000002 cycles: 17742369 heartbeat IPC: 2.81828 cumulative IPC: 2.81811 (Simulation time: 0 hr 7 min 14 sec) 

Warmup complete CPU 0 instructions: 50000002 cycles: 17742369 (Simulation time: 0 hr 7 min 14 sec) 

Heartbeat CPU 0 instructions: 60000002 cycles: 24060155 heartbeat IPC: 1.58283 cumulative IPC: 1.58283 (Simulation time: 0 hr 8 min 36 sec) 
Heartbeat CPU 0 instructions: 70000003 cycles: 30388363 heartbeat IPC: 1.58023 cumulative IPC: 1.58153 (Simulation time: 0 hr 10 min 10 sec) 
Heartbeat CPU 0 instructions: 80000000 cycles: 36716095 heartbeat IPC: 1.58034 cumulative IPC: 1.58113 (Simulation time: 0 hr 11 min 36 sec) 
Heartbeat CPU 0 instructions: 90000000 cycles: 43047326 heartbeat IPC: 1.57947 cumulative IPC: 1.58072 (Simulation time: 0 hr 13 min 1 sec) 
Heartbeat CPU 0 instructions: 100000002 cycles: 49377205 heartbeat IPC: 1.57981 cumulative IPC: 1.58054 (Simulation time: 0 hr 14 min 24 sec) 
Finished CPU 0 instructions: 50000000 cycles: 31634836 cumulative IPC: 1.58054 (Simulation time: 0 hr 14 min 24 sec) 

ChampSim completed all CPUs

Region of Interest Statistics

CPU 0 cumulative IPC: 1.58054 instructions: 50000000 cycles: 31634836

SHEET
IPC : 1.58054

L1D TOTAL     ACCESS:   21836308  HIT:   21819531  MISS:      16777
L1D LOAD      ACCESS:    6693938  HIT:    6693405  MISS:        533
L1D RFO       ACCESS:    8562262  HIT:    8562166  MISS:         96
L1D PREFETCH  ACCESS:    6580108  HIT:    6563960  MISS:      16148
L1D WRITEBACK ACCESS:          0  HIT:          0  MISS:          0
L1D PREFETCH  REQUESTED:    6693997  ISSUED:    6584393  USEFUL:         85  USELESS:      16060
L1D AVERAGE MISS LATENCY: 16.1916 cycles
L1D

SHEET
L1D-total_access : 21836308
L1D-total_hit : 21819531
L1D-total_miss : 16777
L1D-load_access : 6693938
L1D-load_hit : 6693405
L1D-load_miss : 533
L1D-rfo_access : 8562262
L1D-rfo_hit : 8562166
L1D-rfo_miss : 96
L1D-prefetch_access : 6580108
L1D-prefetch_hit : 6563960
L1D-prefetch_miss : 16148
L1D-writeback_access : 0
L1D-writeback_hit : 0
L1D-writeback_miss : 0
L1D-prefetch_requested : 6693997
L1D-prefetch_issued : 6584393
L1D-prefetch_useful : 85
L1D-prefetch_useless : 16060
L1D-Avg_miss_latency : 16.1916
L1D-Morteza_fill_l2_prefetches : 0

L1I TOTAL     ACCESS:   20674407  HIT:   18858567  MISS:    1815840
L1I LOAD      ACCESS:    9611936  HIT:    9265540  MISS:     346396
L1I RFO       ACCESS:          0  HIT:          0  MISS:          0
L1I PREFETCH  ACCESS:   11062471  HIT:    9593027  MISS:    1469444
L1I WRITEBACK ACCESS:          0  HIT:          0  MISS:          0
L1I PREFETCH  REQUESTED:   11969029  ISSUED:   11969029  USEFUL:    1379187  USELESS:      90262
L1I AVERAGE MISS LATENCY: 12.4997 cycles
L1I

SHEET
L1I-total_access : 20674407
L1I-total_hit : 18858567
L1I-total_miss : 1815840
L1I-load_access : 9611936
L1I-load_hit : 9265540
L1I-load_miss : 346396
L1I-rfo_access : 0
L1I-rfo_hit : 0
L1I-rfo_miss : 0
L1I-prefetch_access : 11062471
L1I-prefetch_hit : 9593027
L1I-prefetch_miss : 1469444
L1I-writeback_access : 0
L1I-writeback_hit : 0
L1I-writeback_miss : 0
L1I-prefetch_requested : 11969029
L1I-prefetch_issued : 11969029
L1I-prefetch_useful : 1379187
L1I-prefetch_useless : 90262
L1I-Avg_miss_latency : 12.4997
L1I-Morteza_fill_l2_prefetches : 0

L2C TOTAL     ACCESS:    2352605  HIT:    2352236  MISS:        369
L2C LOAD      ACCESS:     110105  HIT:     110025  MISS:         80
L2C RFO       ACCESS:         94  HIT:         80  MISS:         14
L2C PREFETCH  ACCESS:    2242056  HIT:    2241781  MISS:        275
L2C WRITEBACK ACCESS:        350  HIT:        350  MISS:          0
L2C PREFETCH  REQUESTED:    1255544  ISSUED:    1255541  USEFUL:         88  USELESS:        156
L2C AVERAGE MISS LATENCY: 116.325 cycles
L2C

SHEET
L2C-total_access : 2352605
L2C-total_hit : 2352236
L2C-total_miss : 369
L2C-load_access : 110105
L2C-load_hit : 110025
L2C-load_miss : 80
L2C-rfo_access : 94
L2C-rfo_hit : 80
L2C-rfo_miss : 14
L2C-prefetch_access : 2242056
L2C-prefetch_hit : 2241781
L2C-prefetch_miss : 275
L2C-writeback_access : 350
L2C-writeback_hit : 350
L2C-writeback_miss : 0
L2C-prefetch_requested : 1255544
L2C-prefetch_issued : 1255541
L2C-prefetch_useful : 88
L2C-prefetch_useless : 156
L2C-Avg_miss_latency : 116.325
L2C-Morteza_fill_l2_prefetches : 543546

LLC TOTAL     ACCESS:     225886  HIT:     225215  MISS:        671
LLC LOAD      ACCESS:         80  HIT:         65  MISS:         15
LLC RFO       ACCESS:         13  HIT:         12  MISS:          1
LLC PREFETCH  ACCESS:     225689  HIT:     225036  MISS:        653
LLC WRITEBACK ACCESS:        104  HIT:        102  MISS:          2
LLC PREFETCH  REQUESTED:          0  ISSUED:          0  USEFUL:         13  USELESS:        170
LLC AVERAGE MISS LATENCY: 292.168 cycles
LLC

SHEET
LLC-total_access : 225886
LLC-total_hit : 225215
LLC-total_miss : 671
LLC-load_access : 80
LLC-load_hit : 65
LLC-load_miss : 15
LLC-rfo_access : 13
LLC-rfo_hit : 12
LLC-rfo_miss : 1
LLC-prefetch_access : 225689
LLC-prefetch_hit : 225036
LLC-prefetch_miss : 653
LLC-writeback_access : 104
LLC-writeback_hit : 102
LLC-writeback_miss : 2
LLC-prefetch_requested : 0
LLC-prefetch_issued : 0
LLC-prefetch_useful : 13
LLC-prefetch_useless : 170
LLC-Avg_miss_latency : 292.168
LLC-Morteza_fill_l2_prefetches : 224941

Major fault: 0 Minor fault: 1951



Printing Logs
statHeadFound: 1802163
statHeadMissing: 1522411
statStreamBufferHit: 11303759
statPrefetchEntryFound: 8449124
statCompactorMatch: 10988465
statStreamTrackerLookup: 14628333
statRecord: 3639868
statGetPointer: 3324574
statEnqueuePrefetch: 23839035
statPrefetchQueueIsFull: 0
StreamBufferHitRate: 0.77273
Regions' size: 2771
next_region_correct: 2567589
next_region_wrong: 1069500
next_region_correct_prediction: 0.705946
statStreamBufferLookups: 146283330
statL1iLookups: 190712280
statCompactorLookups: 234053328
morteza: start

SHEET
mana_table_access_counter : 6929567
mana_table_multiple_access_counter : 6964586
hobp_table_access_counter : 49610180
sab_access_counter : 19752883
srq_access_counter : 17739268

morteza: end
CPU 0 L1D next line prefetcher final stats

DRAM Statistics
 CHANNEL 0
 RQ ROW_BUFFER_HIT:        112  ROW_BUFFER_MISS:        557
 DBUS_CONGESTED:        377
 WQ ROW_BUFFER_HIT:         71  ROW_BUFFER_MISS:        357  FULL:          0

 AVG_CONGESTED_CYCLE: 6

CPU 0 Branch Prediction Accuracy: 99.9085% MPKI: 0.15428 Average ROB Occupancy at Mispredict: 267.615

Branch types
NOT_BRANCH: 41573070 83.1461%
BRANCH_DIRECT_JUMP: 436254 0.872508%
BRANCH_INDIRECT: 0 0%
BRANCH_CONDITIONAL: 5395890 10.7918%
BRANCH_DIRECT_CALL: 1173389 2.34678%
BRANCH_INDIRECT_CALL: 123910 0.24782%
BRANCH_RETURN: 1297310 2.59462%
BRANCH_OTHER: 0 0%

