Initialize SIGNATURE TABLE
ST_SET: 1
ST_WAY: 256
ST_TAG_BIT: 16
ST_TAG_MASK: ffff

Initialize PATTERN TABLE
PT_SET: 512
PT_WAY: 4
SIG_DELTA_BIT: 7
C_SIG_BIT: 4
C_DELTA_BIT: 4

Initialize PREFETCH FILTER
FILTER_SET: 1024
MANA initialize 
tds: 2 tdm: 4
size MANA SINGLE: 74 KB
size MANA NULTIPLE: 43 KB
size HOBPT: 5 KB
size SRQ: 0.0644531 KB
size SABs: 0.0402832 KB
size prefetch queue: 0.453125 KB
total: 122.558 KB

*** ChampSim Multicore Out-of-Order Simulator ***

Warmup Instructions: 50000000
Simulation Instructions: 50000000
Number of CPUs: 1
LLC sets: 2048
LLC ways: 16
Off-chip DRAM Size: 4096 MB Channels: 1 Width: 64-bit Data Rate: 3200 MT/s

CPU 0 runs ../dpc3_traces/spec_gcc_002.champsimtrace.xz
CPU 0 L1D next line prefetcher
Heartbeat CPU 0 instructions: 10000002 cycles: 3533474 heartbeat IPC: 2.83008 cumulative IPC: 2.83008 (Simulation time: 0 hr 1 min 18 sec) 
Heartbeat CPU 0 instructions: 20000000 cycles: 7103626 heartbeat IPC: 2.801 cumulative IPC: 2.81546 (Simulation time: 0 hr 2 min 36 sec) 
Heartbeat CPU 0 instructions: 30000000 cycles: 10770579 heartbeat IPC: 2.72706 cumulative IPC: 2.78537 (Simulation time: 0 hr 3 min 52 sec) 
Heartbeat CPU 0 instructions: 40000000 cycles: 14326951 heartbeat IPC: 2.81185 cumulative IPC: 2.79194 (Simulation time: 0 hr 5 min 5 sec) 
Heartbeat CPU 0 instructions: 50000002 cycles: 17801394 heartbeat IPC: 2.87816 cumulative IPC: 2.80877 (Simulation time: 0 hr 6 min 9 sec) 

Warmup complete CPU 0 instructions: 50000002 cycles: 17801394 (Simulation time: 0 hr 6 min 9 sec) 

Heartbeat CPU 0 instructions: 60000001 cycles: 54495405 heartbeat IPC: 0.272524 cumulative IPC: 0.272524 (Simulation time: 0 hr 8 min 32 sec) 
Heartbeat CPU 0 instructions: 70000001 cycles: 86309603 heartbeat IPC: 0.314325 cumulative IPC: 0.291936 (Simulation time: 0 hr 10 min 39 sec) 
Heartbeat CPU 0 instructions: 80000002 cycles: 134673202 heartbeat IPC: 0.206767 cumulative IPC: 0.256692 (Simulation time: 0 hr 13 min 18 sec) 
Heartbeat CPU 0 instructions: 90000001 cycles: 178378054 heartbeat IPC: 0.228808 cumulative IPC: 0.249102 (Simulation time: 0 hr 15 min 48 sec) 
Heartbeat CPU 0 instructions: 100000000 cycles: 206509424 heartbeat IPC: 0.355475 cumulative IPC: 0.26496 (Simulation time: 0 hr 17 min 42 sec) 
Finished CPU 0 instructions: 50000002 cycles: 188708038 cumulative IPC: 0.26496 (Simulation time: 0 hr 17 min 42 sec) 

ChampSim completed all CPUs

Region of Interest Statistics

CPU 0 cumulative IPC: 0.26496 instructions: 50000002 cycles: 188708038

SHEET
IPC : 0.26496

L1D TOTAL     ACCESS:   18361379  HIT:   13127635  MISS:    5233744
L1D LOAD      ACCESS:    6398930  HIT:    5360670  MISS:    1038260
L1D RFO       ACCESS:    7051958  HIT:    3451211  MISS:    3600747
L1D PREFETCH  ACCESS:    4910491  HIT:    4315754  MISS:     594737
L1D WRITEBACK ACCESS:          0  HIT:          0  MISS:          0
L1D PREFETCH  REQUESTED:    6419366  ISSUED:    6350253  USEFUL:     434929  USELESS:     160024
L1D AVERAGE MISS LATENCY: 326.28 cycles
L1D

SHEET
L1D-total_access : 18361379
L1D-total_hit : 13127635
L1D-total_miss : 5233744
L1D-load_access : 6398930
L1D-load_hit : 5360670
L1D-load_miss : 1038260
L1D-rfo_access : 7051958
L1D-rfo_hit : 3451211
L1D-rfo_miss : 3600747
L1D-prefetch_access : 4910491
L1D-prefetch_hit : 4315754
L1D-prefetch_miss : 594737
L1D-writeback_access : 0
L1D-writeback_hit : 0
L1D-writeback_miss : 0
L1D-prefetch_requested : 6419366
L1D-prefetch_issued : 6350253
L1D-prefetch_useful : 434929
L1D-prefetch_useless : 160024
L1D-Avg_miss_latency : 326.28
L1D-Morteza_fill_l2_prefetches : 0

L1I TOTAL     ACCESS:   19889777  HIT:   19002231  MISS:     887546
L1I LOAD      ACCESS:   12049082  HIT:   11830096  MISS:     218986
L1I RFO       ACCESS:          0  HIT:          0  MISS:          0
L1I PREFETCH  ACCESS:    7840695  HIT:    7172135  MISS:     668560
L1I WRITEBACK ACCESS:          0  HIT:          0  MISS:          0
L1I PREFETCH  REQUESTED:    9723687  ISSUED:    9511880  USEFUL:     427336  USELESS:     241168
L1I AVERAGE MISS LATENCY: 57.6783 cycles
L1I

SHEET
L1I-total_access : 19889777
L1I-total_hit : 19002231
L1I-total_miss : 887546
L1I-load_access : 12049082
L1I-load_hit : 11830096
L1I-load_miss : 218986
L1I-rfo_access : 0
L1I-rfo_hit : 0
L1I-rfo_miss : 0
L1I-prefetch_access : 7840695
L1I-prefetch_hit : 7172135
L1I-prefetch_miss : 668560
L1I-writeback_access : 0
L1I-writeback_hit : 0
L1I-writeback_miss : 0
L1I-prefetch_requested : 9723687
L1I-prefetch_issued : 9511880
L1I-prefetch_useful : 427336
L1I-prefetch_useless : 241168
L1I-Avg_miss_latency : 57.6783
L1I-Morteza_fill_l2_prefetches : 0

L2C TOTAL     ACCESS:   10246611  HIT:    4938415  MISS:    5308196
L2C LOAD      ACCESS:     403118  HIT:     194086  MISS:     209032
L2C RFO       ACCESS:    3599130  HIT:      12159  MISS:    3586971
L2C PREFETCH  ACCESS:    2518839  HIT:    1006810  MISS:    1512029
L2C WRITEBACK ACCESS:    3725524  HIT:    3725360  MISS:        164
L2C PREFETCH  REQUESTED:    3233058  ISSUED:    3232746  USEFUL:      50802  USELESS:    1461407
L2C AVERAGE MISS LATENCY: 333.516 cycles
L2C

SHEET
L2C-total_access : 10246611
L2C-total_hit : 4938415
L2C-total_miss : 5308196
L2C-load_access : 403118
L2C-load_hit : 194086
L2C-load_miss : 209032
L2C-rfo_access : 3599130
L2C-rfo_hit : 12159
L2C-rfo_miss : 3586971
L2C-prefetch_access : 2518839
L2C-prefetch_hit : 1006810
L2C-prefetch_miss : 1512029
L2C-writeback_access : 3725524
L2C-writeback_hit : 3725360
L2C-writeback_miss : 164
L2C-prefetch_requested : 3233058
L2C-prefetch_issued : 3232746
L2C-prefetch_useful : 50802
L2C-prefetch_useless : 1461407
L2C-Avg_miss_latency : 333.516
L2C-Morteza_fill_l2_prefetches : 296131

LLC TOTAL     ACCESS:   10033889  HIT:    6393392  MISS:    3640497
LLC LOAD      ACCESS:     208832  HIT:     134450  MISS:      74382
LLC RFO       ACCESS:    3586970  HIT:     710939  MISS:    2876031
LLC PREFETCH  ACCESS:    2569853  HIT:    1879769  MISS:     690084
LLC WRITEBACK ACCESS:    3668234  HIT:    3668234  MISS:          0
LLC PREFETCH  REQUESTED:          0  ISSUED:          0  USEFUL:     163692  USELESS:     523447
LLC AVERAGE MISS LATENCY: 463.972 cycles
LLC

SHEET
LLC-total_access : 10033889
LLC-total_hit : 6393392
LLC-total_miss : 3640497
LLC-load_access : 208832
LLC-load_hit : 134450
LLC-load_miss : 74382
LLC-rfo_access : 3586971
LLC-rfo_hit : 710939
LLC-rfo_miss : 2876032
LLC-prefetch_access : 2569853
LLC-prefetch_hit : 1879769
LLC-prefetch_miss : 690084
LLC-writeback_access : 3668234
LLC-writeback_hit : 3668234
LLC-writeback_miss : 0
LLC-prefetch_requested : 0
LLC-prefetch_issued : 0
LLC-prefetch_useful : 163692
LLC-prefetch_useless : 523447
LLC-Avg_miss_latency : 463.972
LLC-Morteza_fill_l2_prefetches : 1056339

Major fault: 0 Minor fault: 4246



Printing Logs
statHeadFound: 1709882
statHeadMissing: 5014265
statStreamBufferHit: 6379689
statPrefetchEntryFound: 6142619
statCompactorMatch: 11834391
statStreamTrackerLookup: 13103836
statRecord: 1269445
statGetPointer: 6724147
statEnqueuePrefetch: 17720112
statPrefetchQueueIsFull: 45208
StreamBufferHitRate: 0.486857
Regions' size: 1605
next_region_correct: 745607
next_region_wrong: 522225
next_region_correct_prediction: 0.588096
statStreamBufferLookups: 131038360
statL1iLookups: 141760896
statCompactorLookups: 209661376
morteza: start

SHEET
mana_table_access_counter : 2365817
mana_table_multiple_access_counter : 6804068
hobp_table_access_counter : 65063323
sab_access_counter : 12522308
srq_access_counter : 12668567

morteza: end
CPU 0 L1D next line prefetcher final stats

DRAM Statistics
 CHANNEL 0
 RQ ROW_BUFFER_HIT:     983630  ROW_BUFFER_MISS:    2653810
 DBUS_CONGESTED:    5314748
 WQ ROW_BUFFER_HIT:     903818  ROW_BUFFER_MISS:    2154767  FULL:          0

 AVG_CONGESTED_CYCLE: 6

CPU 0 Branch Prediction Accuracy: 99.5987% MPKI: 0.82446 Average ROB Occupancy at Mispredict: 119.424

Branch types
NOT_BRANCH: 39726803 79.4536%
BRANCH_DIRECT_JUMP: 391438 0.782876%
BRANCH_INDIRECT: 62076 0.124152%
BRANCH_CONDITIONAL: 8421539 16.8431%
BRANCH_DIRECT_CALL: 672962 1.34592%
BRANCH_INDIRECT_CALL: 26115 0.05223%
BRANCH_RETURN: 699082 1.39816%
BRANCH_OTHER: 0 0%

