Initialize SIGNATURE TABLE
ST_SET: 1
ST_WAY: 256
ST_TAG_BIT: 16
ST_TAG_MASK: ffff

Initialize PATTERN TABLE
PT_SET: 512
PT_WAY: 4
SIG_DELTA_BIT: 7
C_SIG_BIT: 4
C_DELTA_BIT: 4

Initialize PREFETCH FILTER
FILTER_SET: 1024

*** ChampSim Multicore Out-of-Order Simulator ***

Warmup Instructions: 50000000
Simulation Instructions: 50000000
Number of CPUs: 1
LLC sets: 2048
LLC ways: 16
Off-chip DRAM Size: 4096 MB Channels: 1 Width: 64-bit Data Rate: 3200 MT/s

CPU 0 runs /home/mbaradaran/ChampSim/dpc3_traces/server_027.champsimtrace.xz
CPU 0 L1D next line prefetcher
Heartbeat CPU 0 instructions: 10000001 cycles: 3527102 heartbeat IPC: 2.83519 cumulative IPC: 2.83519 (Simulation time: 0 hr 1 min 55 sec) 
Heartbeat CPU 0 instructions: 20000001 cycles: 7058271 heartbeat IPC: 2.83192 cumulative IPC: 2.83356 (Simulation time: 0 hr 3 min 48 sec) 
Heartbeat CPU 0 instructions: 30000002 cycles: 10584271 heartbeat IPC: 2.83608 cumulative IPC: 2.83439 (Simulation time: 0 hr 5 min 46 sec) 
Heartbeat CPU 0 instructions: 40000000 cycles: 14115817 heartbeat IPC: 2.83162 cumulative IPC: 2.8337 (Simulation time: 0 hr 7 min 43 sec) 
Heartbeat CPU 0 instructions: 50000001 cycles: 17641320 heartbeat IPC: 2.83647 cumulative IPC: 2.83425 (Simulation time: 0 hr 9 min 32 sec) 

Warmup complete CPU 0 instructions: 50000001 cycles: 17641320 (Simulation time: 0 hr 9 min 32 sec) 

Heartbeat CPU 0 instructions: 60000002 cycles: 27153462 heartbeat IPC: 1.05129 cumulative IPC: 1.05129 (Simulation time: 0 hr 11 min 5 sec) 
Heartbeat CPU 0 instructions: 70000003 cycles: 36473194 heartbeat IPC: 1.07299 cumulative IPC: 1.06203 (Simulation time: 0 hr 12 min 38 sec) 
Heartbeat CPU 0 instructions: 80000002 cycles: 45890942 heartbeat IPC: 1.06182 cumulative IPC: 1.06196 (Simulation time: 0 hr 14 min 12 sec) 
Heartbeat CPU 0 instructions: 90000001 cycles: 55313189 heartbeat IPC: 1.06132 cumulative IPC: 1.0618 (Simulation time: 0 hr 15 min 44 sec) 
Heartbeat CPU 0 instructions: 100000002 cycles: 64597293 heartbeat IPC: 1.07711 cumulative IPC: 1.06483 (Simulation time: 0 hr 17 min 17 sec) 
Finished CPU 0 instructions: 50000001 cycles: 46955973 cumulative IPC: 1.06483 (Simulation time: 0 hr 17 min 17 sec) 

ChampSim completed all CPUs

Region of Interest Statistics

CPU 0 cumulative IPC: 1.06483 instructions: 50000001 cycles: 46955973

SHEET
IPC : 1.06483

L1D TOTAL     ACCESS:   21799066  HIT:   20195490  MISS:    1603576
L1D LOAD      ACCESS:    7862613  HIT:    7180774  MISS:     681839
L1D RFO       ACCESS:    6345613  HIT:    6059220  MISS:     286393
L1D PREFETCH  ACCESS:    7590840  HIT:    6955496  MISS:     635344
L1D WRITEBACK ACCESS:          0  HIT:          0  MISS:          0
L1D PREFETCH  REQUESTED:    7909344  ISSUED:    7795636  USEFUL:     159437  USELESS:     475921
L1D AVERAGE MISS LATENCY: 22.8395 cycles
L1D

SHEET
L1D-total_access : 21799066
L1D-total_hit : 20195490
L1D-total_miss : 1603576
L1D-load_access : 7862613
L1D-load_hit : 7180774
L1D-load_miss : 681839
L1D-rfo_access : 6345613
L1D-rfo_hit : 6059220
L1D-rfo_miss : 286393
L1D-prefetch_access : 7590840
L1D-prefetch_hit : 6955496
L1D-prefetch_miss : 635344
L1D-writeback_access : 0
L1D-writeback_hit : 0
L1D-writeback_miss : 0
L1D-prefetch_requested : 7909344
L1D-prefetch_issued : 7795636
L1D-prefetch_useful : 159437
L1D-prefetch_useless : 475921
L1D-Avg_miss_latency : 22.8395

L1I TOTAL     ACCESS:   10325515  HIT:    7513490  MISS:    2812025
L1I LOAD      ACCESS:    9220743  HIT:    7193080  MISS:    2027663
L1I RFO       ACCESS:          0  HIT:          0  MISS:          0
L1I PREFETCH  ACCESS:    1104772  HIT:     320410  MISS:     784362
L1I WRITEBACK ACCESS:          0  HIT:          0  MISS:          0
L1I PREFETCH  REQUESTED:    1734852  ISSUED:    1734852  USEFUL:     726998  USELESS:      57386
L1I AVERAGE MISS LATENCY: 15.4015 cycles
L1I

SHEET
L1I-total_access : 10325515
L1I-total_hit : 7513490
L1I-total_miss : 2812025
L1I-load_access : 9220743
L1I-load_hit : 7193080
L1I-load_miss : 2027663
L1I-rfo_access : 0
L1I-rfo_hit : 0
L1I-rfo_miss : 0
L1I-prefetch_access : 1104772
L1I-prefetch_hit : 320410
L1I-prefetch_miss : 784362
L1I-writeback_access : 0
L1I-writeback_hit : 0
L1I-writeback_miss : 0
L1I-prefetch_requested : 1734852
L1I-prefetch_issued : 1734852
L1I-prefetch_useful : 726998
L1I-prefetch_useless : 57386
L1I-Avg_miss_latency : 15.4015

L2C TOTAL     ACCESS:    6715177  HIT:    5952422  MISS:     762755
L2C LOAD      ACCESS:    2179422  HIT:    1797137  MISS:     382285
L2C RFO       ACCESS:     283890  HIT:     200316  MISS:      83574
L2C PREFETCH  ACCESS:    3692473  HIT:    3398241  MISS:     294232
L2C WRITEBACK ACCESS:     559392  HIT:     556728  MISS:       2664
L2C PREFETCH  REQUESTED:    4355820  ISSUED:    4354948  USEFUL:      37815  USELESS:     256432
L2C AVERAGE MISS LATENCY: 36.6574 cycles
L2C

SHEET
L2C-total_access : 6715177
L2C-total_hit : 5952422
L2C-total_miss : 762755
L2C-load_access : 2179422
L2C-load_hit : 1797137
L2C-load_miss : 382285
L2C-rfo_access : 283890
L2C-rfo_hit : 200316
L2C-rfo_miss : 83574
L2C-prefetch_access : 3692473
L2C-prefetch_hit : 3398241
L2C-prefetch_miss : 294232
L2C-writeback_access : 559392
L2C-writeback_hit : 556728
L2C-writeback_miss : 2664
L2C-prefetch_requested : 4355820
L2C-prefetch_issued : 4354948
L2C-prefetch_useful : 37815
L2C-prefetch_useless : 256432
L2C-Avg_miss_latency : 36.6574

LLC TOTAL     ACCESS:    2241532  HIT:    2208521  MISS:      33011
LLC LOAD      ACCESS:     382085  HIT:     377951  MISS:       4134
LLC RFO       ACCESS:      83571  HIT:      69641  MISS:      13930
LLC PREFETCH  ACCESS:    1638944  HIT:    1624192  MISS:      14752
LLC WRITEBACK ACCESS:     136932  HIT:     136737  MISS:        195
LLC PREFETCH  REQUESTED:          0  ISSUED:          0  USEFUL:       1594  USELESS:      13583
LLC AVERAGE MISS LATENCY: 179.758 cycles
LLC

SHEET
LLC-total_access : 2241532
LLC-total_hit : 2208521
LLC-total_miss : 33011
LLC-load_access : 382085
LLC-load_hit : 377951
LLC-load_miss : 4134
LLC-rfo_access : 83571
LLC-rfo_hit : 69641
LLC-rfo_miss : 13930
LLC-prefetch_access : 1638944
LLC-prefetch_hit : 1624192
LLC-prefetch_miss : 14752
LLC-writeback_access : 136932
LLC-writeback_hit : 136737
LLC-writeback_miss : 195
LLC-prefetch_requested : 0
LLC-prefetch_issued : 0
LLC-prefetch_useful : 1594
LLC-prefetch_useless : 13583
LLC-Avg_miss_latency : 179.758

Major fault: 0 Minor fault: 2477
num_of_hits: 4712161
num_of_misses: 4177053
hit_rate: 0.530099
observed_signatures: 12004
RAS addresses: 2153
branch_addresses: 10885
RAS match: 2216084	 RAS_mismatches: 4088	 accuracy: 0.998159

 morteza stats start 

SHEET
RAS_access_cntr : 22071146
current_block_access_cntr : 42392028
table_access_cntr : 6800944
last_block_access_cntr : 42392028
last_signature_access_cntr : 8880720
miss_log_access_cntr : 7050143
prefetch_queue_access_cntr : 7895318
signature_access_cntr : 13321080
miss log count : 23


morteza stats endCPU 0 L1D next line prefetcher final stats

DRAM Statistics
 CHANNEL 0
 RQ ROW_BUFFER_HIT:      11197  ROW_BUFFER_MISS:      21619
 DBUS_CONGESTED:      22791
 WQ ROW_BUFFER_HIT:       1515  ROW_BUFFER_MISS:      14105  FULL:          0

 AVG_CONGESTED_CYCLE: 6

CPU 0 Branch Prediction Accuracy: 99.8082% MPKI: 0.35064 Average ROB Occupancy at Mispredict: 96.9824

Branch types
NOT_BRANCH: 40857242 81.7145%
BRANCH_DIRECT_JUMP: 526632 1.05326%
BRANCH_INDIRECT: 205902 0.411804%
BRANCH_CONDITIONAL: 6184014 12.368%
BRANCH_DIRECT_CALL: 938462 1.87692%
BRANCH_INDIRECT_CALL: 174486 0.348972%
BRANCH_RETURN: 1112952 2.2259%
BRANCH_OTHER: 0 0%

