Initialize SIGNATURE TABLE
ST_SET: 1
ST_WAY: 256
ST_TAG_BIT: 16
ST_TAG_MASK: ffff

Initialize PATTERN TABLE
PT_SET: 512
PT_WAY: 4
SIG_DELTA_BIT: 7
C_SIG_BIT: 4
C_DELTA_BIT: 4

Initialize PREFETCH FILTER
FILTER_SET: 1024

*** ChampSim Multicore Out-of-Order Simulator ***

Warmup Instructions: 50000000
Simulation Instructions: 50000000
Number of CPUs: 1
LLC sets: 2048
LLC ways: 16
Off-chip DRAM Size: 4096 MB Channels: 1 Width: 64-bit Data Rate: 3200 MT/s

CPU 0 runs /home/mbaradaran/ChampSim/dpc3_traces/server_036.champsimtrace.xz
CPU 0 L1D next line prefetcher
Heartbeat CPU 0 instructions: 10000000 cycles: 3458986 heartbeat IPC: 2.89102 cumulative IPC: 2.89102 (Simulation time: 0 hr 1 min 51 sec) 
Heartbeat CPU 0 instructions: 20000000 cycles: 6924805 heartbeat IPC: 2.88532 cumulative IPC: 2.88817 (Simulation time: 0 hr 3 min 40 sec) 
Heartbeat CPU 0 instructions: 30000003 cycles: 10432931 heartbeat IPC: 2.85053 cumulative IPC: 2.87551 (Simulation time: 0 hr 5 min 22 sec) 
Heartbeat CPU 0 instructions: 40000000 cycles: 13895435 heartbeat IPC: 2.88808 cumulative IPC: 2.87864 (Simulation time: 0 hr 7 min 16 sec) 
Heartbeat CPU 0 instructions: 50000002 cycles: 17357139 heartbeat IPC: 2.88875 cumulative IPC: 2.88066 (Simulation time: 0 hr 9 min 9 sec) 

Warmup complete CPU 0 instructions: 50000002 cycles: 17357139 (Simulation time: 0 hr 9 min 9 sec) 

Heartbeat CPU 0 instructions: 60000002 cycles: 23953660 heartbeat IPC: 1.51595 cumulative IPC: 1.51595 (Simulation time: 0 hr 10 min 28 sec) 
Heartbeat CPU 0 instructions: 70000001 cycles: 30501832 heartbeat IPC: 1.52714 cumulative IPC: 1.52153 (Simulation time: 0 hr 11 min 50 sec) 
Heartbeat CPU 0 instructions: 80000001 cycles: 37071747 heartbeat IPC: 1.52209 cumulative IPC: 1.52171 (Simulation time: 0 hr 13 min 9 sec) 
Heartbeat CPU 0 instructions: 90000002 cycles: 43642110 heartbeat IPC: 1.52199 cumulative IPC: 1.52178 (Simulation time: 0 hr 14 min 29 sec) 
Heartbeat CPU 0 instructions: 100000001 cycles: 50215254 heartbeat IPC: 1.52134 cumulative IPC: 1.52169 (Simulation time: 0 hr 15 min 46 sec) 
Finished CPU 0 instructions: 50000003 cycles: 32858116 cumulative IPC: 1.52169 (Simulation time: 0 hr 15 min 46 sec) 

ChampSim completed all CPUs

Region of Interest Statistics

CPU 0 cumulative IPC: 1.52169 instructions: 50000003 cycles: 32858116

SHEET
IPC : 1.52169

L1D TOTAL     ACCESS:   22125326  HIT:   22064827  MISS:      60499
L1D LOAD      ACCESS:    7437318  HIT:    7402267  MISS:      35051
L1D RFO       ACCESS:    7393268  HIT:    7385999  MISS:       7269
L1D PREFETCH  ACCESS:    7294740  HIT:    7276561  MISS:      18179
L1D WRITEBACK ACCESS:          0  HIT:          0  MISS:          0
L1D PREFETCH  REQUESTED:    7438041  ISSUED:    7322094  USEFUL:       5434  USELESS:      12746
L1D AVERAGE MISS LATENCY: 17.1755 cycles
L1D

SHEET
L1D-total_access : 22125326
L1D-total_hit : 22064827
L1D-total_miss : 60499
L1D-load_access : 7437318
L1D-load_hit : 7402267
L1D-load_miss : 35051
L1D-rfo_access : 7393268
L1D-rfo_hit : 7385999
L1D-rfo_miss : 7269
L1D-prefetch_access : 7294740
L1D-prefetch_hit : 7276561
L1D-prefetch_miss : 18179
L1D-writeback_access : 0
L1D-writeback_hit : 0
L1D-writeback_miss : 0
L1D-prefetch_requested : 7438041
L1D-prefetch_issued : 7322094
L1D-prefetch_useful : 5434
L1D-prefetch_useless : 12746
L1D-Avg_miss_latency : 17.1755

L1I TOTAL     ACCESS:   12044077  HIT:    8055509  MISS:    3988568
L1I LOAD      ACCESS:    8836378  HIT:    7395309  MISS:    1441069
L1I RFO       ACCESS:          0  HIT:          0  MISS:          0
L1I PREFETCH  ACCESS:    3207699  HIT:     660200  MISS:    2547499
L1I WRITEBACK ACCESS:          0  HIT:          0  MISS:          0
L1I PREFETCH  REQUESTED:    4839515  ISSUED:    4839515  USEFUL:    2383603  USELESS:     163891
L1I AVERAGE MISS LATENCY: 9.55439 cycles
L1I

SHEET
L1I-total_access : 12044077
L1I-total_hit : 8055509
L1I-total_miss : 3988568
L1I-load_access : 8836378
L1I-load_hit : 7395309
L1I-load_miss : 1441069
L1I-rfo_access : 0
L1I-rfo_hit : 0
L1I-rfo_miss : 0
L1I-prefetch_access : 3207699
L1I-prefetch_hit : 660200
L1I-prefetch_miss : 2547499
L1I-writeback_access : 0
L1I-writeback_hit : 0
L1I-writeback_miss : 0
L1I-prefetch_requested : 4839515
L1I-prefetch_issued : 4839515
L1I-prefetch_useful : 2383603
L1I-prefetch_useless : 163891
L1I-Avg_miss_latency : 9.55439

L2C TOTAL     ACCESS:    5932126  HIT:    5929997  MISS:       2129
L2C LOAD      ACCESS:     176972  HIT:     176172  MISS:        800
L2C RFO       ACCESS:       7261  HIT:       7202  MISS:         59
L2C PREFETCH  ACCESS:    5732241  HIT:    5730987  MISS:       1254
L2C WRITEBACK ACCESS:      15652  HIT:      15636  MISS:         16
L2C PREFETCH  REQUESTED:    6221645  ISSUED:    6221631  USEFUL:        134  USELESS:        787
L2C AVERAGE MISS LATENCY: 107.419 cycles
L2C

SHEET
L2C-total_access : 5932126
L2C-total_hit : 5929997
L2C-total_miss : 2129
L2C-load_access : 176972
L2C-load_hit : 176172
L2C-load_miss : 800
L2C-rfo_access : 7261
L2C-rfo_hit : 7202
L2C-rfo_miss : 59
L2C-prefetch_access : 5732241
L2C-prefetch_hit : 5730987
L2C-prefetch_miss : 1254
L2C-writeback_access : 15652
L2C-writeback_hit : 15636
L2C-writeback_miss : 16
L2C-prefetch_requested : 6221645
L2C-prefetch_issued : 6221631
L2C-prefetch_useful : 134
L2C-prefetch_useless : 787
L2C-Avg_miss_latency : 107.419

LLC TOTAL     ACCESS:    1130113  HIT:    1127404  MISS:       2709
LLC LOAD      ACCESS:        798  HIT:        320  MISS:        478
LLC RFO       ACCESS:         59  HIT:         30  MISS:         29
LLC PREFETCH  ACCESS:    1128333  HIT:    1126137  MISS:       2196
LLC WRITEBACK ACCESS:        923  HIT:        917  MISS:          6
LLC PREFETCH  REQUESTED:          0  ISSUED:          0  USEFUL:        207  USELESS:        653
LLC AVERAGE MISS LATENCY: 199.875 cycles
LLC

SHEET
LLC-total_access : 1130113
LLC-total_hit : 1127404
LLC-total_miss : 2709
LLC-load_access : 798
LLC-load_hit : 320
LLC-load_miss : 478
LLC-rfo_access : 59
LLC-rfo_hit : 30
LLC-rfo_miss : 29
LLC-prefetch_access : 1128333
LLC-prefetch_hit : 1126137
LLC-prefetch_miss : 2196
LLC-writeback_access : 923
LLC-writeback_hit : 917
LLC-writeback_miss : 6
LLC-prefetch_requested : 0
LLC-prefetch_issued : 0
LLC-prefetch_useful : 207
LLC-prefetch_useless : 653
LLC-Avg_miss_latency : 199.875

Major fault: 0 Minor fault: 1926
num_of_hits: 8715833
num_of_misses: 27707
hit_rate: 0.996831
observed_signatures: 11827
RAS addresses: 2953
branch_addresses: 14459
RAS match: 2178900	 RAS_mismatches: 1479	 accuracy: 0.999322

 morteza stats start 

SHEET
RAS_access_cntr : 21734419
current_block_access_cntr : 40259830
table_access_cntr : 8729688
last_block_access_cntr : 40259830
last_signature_access_cntr : 8721582
miss_log_access_cntr : 3296625
prefetch_queue_access_cntr : 13943979
signature_access_cntr : 13082373
miss log count : 24


morteza stats endCPU 0 L1D next line prefetcher final stats

DRAM Statistics
 CHANNEL 0
 RQ ROW_BUFFER_HIT:        507  ROW_BUFFER_MISS:       2196
 DBUS_CONGESTED:       1673
 WQ ROW_BUFFER_HIT:        417  ROW_BUFFER_MISS:       1339  FULL:          0

 AVG_CONGESTED_CYCLE: 6

CPU 0 Branch Prediction Accuracy: 99.8717% MPKI: 0.21174 Average ROB Occupancy at Mispredict: 186.626

Branch types
NOT_BRANCH: 41748430 83.4969%
BRANCH_DIRECT_JUMP: 468563 0.937126%
BRANCH_INDIRECT: 0 0%
BRANCH_CONDITIONAL: 5599753 11.1995%
BRANCH_DIRECT_CALL: 885105 1.77021%
BRANCH_INDIRECT_CALL: 206338 0.412676%
BRANCH_RETURN: 1091467 2.18293%
BRANCH_OTHER: 0 0%

