Initialize SIGNATURE TABLE
ST_SET: 1
ST_WAY: 256
ST_TAG_BIT: 16
ST_TAG_MASK: ffff

Initialize PATTERN TABLE
PT_SET: 512
PT_WAY: 4
SIG_DELTA_BIT: 7
C_SIG_BIT: 4
C_DELTA_BIT: 4

Initialize PREFETCH FILTER
FILTER_SET: 1024

*** ChampSim Multicore Out-of-Order Simulator ***

Warmup Instructions: 50000000
Simulation Instructions: 50000000
Number of CPUs: 1
LLC sets: 2048
LLC ways: 16
Off-chip DRAM Size: 4096 MB Channels: 1 Width: 64-bit Data Rate: 3200 MT/s

CPU 0 runs /home/mbaradaran/ChampSim/dpc3_traces/spec_perlbench_001.champsimtrace.xz
CPU 0 L1D next line prefetcher
Heartbeat CPU 0 instructions: 10000000 cycles: 3275860 heartbeat IPC: 3.05263 cumulative IPC: 3.05263 (Simulation time: 0 hr 1 min 36 sec) 
Heartbeat CPU 0 instructions: 20000000 cycles: 6540371 heartbeat IPC: 3.06325 cumulative IPC: 3.05793 (Simulation time: 0 hr 3 min 6 sec) 
Heartbeat CPU 0 instructions: 30000002 cycles: 9856920 heartbeat IPC: 3.01518 cumulative IPC: 3.04355 (Simulation time: 0 hr 4 min 23 sec) 
Heartbeat CPU 0 instructions: 40000002 cycles: 13112418 heartbeat IPC: 3.07173 cumulative IPC: 3.05054 (Simulation time: 0 hr 5 min 28 sec) 
Heartbeat CPU 0 instructions: 50000001 cycles: 16386190 heartbeat IPC: 3.05458 cumulative IPC: 3.05135 (Simulation time: 0 hr 6 min 34 sec) 

Warmup complete CPU 0 instructions: 50000001 cycles: 16386190 (Simulation time: 0 hr 6 min 34 sec) 

Heartbeat CPU 0 instructions: 60000001 cycles: 24882974 heartbeat IPC: 1.17692 cumulative IPC: 1.17692 (Simulation time: 0 hr 7 min 34 sec) 
Heartbeat CPU 0 instructions: 70000003 cycles: 33306844 heartbeat IPC: 1.1871 cumulative IPC: 1.18199 (Simulation time: 0 hr 8 min 38 sec) 
Heartbeat CPU 0 instructions: 80000000 cycles: 41828871 heartbeat IPC: 1.17343 cumulative IPC: 1.17912 (Simulation time: 0 hr 9 min 41 sec) 
Heartbeat CPU 0 instructions: 90000000 cycles: 47545086 heartbeat IPC: 1.74941 cumulative IPC: 1.28374 (Simulation time: 0 hr 10 min 30 sec) 
Heartbeat CPU 0 instructions: 100000002 cycles: 53429213 heartbeat IPC: 1.69949 cumulative IPC: 1.34978 (Simulation time: 0 hr 11 min 18 sec) 
Finished CPU 0 instructions: 50000001 cycles: 37043023 cumulative IPC: 1.34978 (Simulation time: 0 hr 11 min 18 sec) 

ChampSim completed all CPUs

Region of Interest Statistics

CPU 0 cumulative IPC: 1.34978 instructions: 50000001 cycles: 37043023

SHEET
IPC : 1.34978

L1D TOTAL     ACCESS:   20781015  HIT:   20365900  MISS:     415115
L1D LOAD      ACCESS:    7218515  HIT:    7005055  MISS:     213460
L1D RFO       ACCESS:    6544180  HIT:    6525668  MISS:      18512
L1D PREFETCH  ACCESS:    7018320  HIT:    6835177  MISS:     183143
L1D WRITEBACK ACCESS:          0  HIT:          0  MISS:          0
L1D PREFETCH  REQUESTED:    7234712  ISSUED:    7118687  USEFUL:      55471  USELESS:     127667
L1D AVERAGE MISS LATENCY: 57.9118 cycles
L1D

SHEET
L1D-total_access : 20781015
L1D-total_hit : 20365900
L1D-total_miss : 415115
L1D-load_access : 7218515
L1D-load_hit : 7005055
L1D-load_miss : 213460
L1D-rfo_access : 6544180
L1D-rfo_hit : 6525668
L1D-rfo_miss : 18512
L1D-prefetch_access : 7018320
L1D-prefetch_hit : 6835177
L1D-prefetch_miss : 183143
L1D-writeback_access : 0
L1D-writeback_hit : 0
L1D-writeback_miss : 0
L1D-prefetch_requested : 7234712
L1D-prefetch_issued : 7118687
L1D-prefetch_useful : 55471
L1D-prefetch_useless : 127667
L1D-Avg_miss_latency : 57.9118

L1I TOTAL     ACCESS:   13376568  HIT:   12982173  MISS:     394395
L1I LOAD      ACCESS:    9137346  HIT:    8936892  MISS:     200454
L1I RFO       ACCESS:          0  HIT:          0  MISS:          0
L1I PREFETCH  ACCESS:    4239222  HIT:    4045281  MISS:     193941
L1I WRITEBACK ACCESS:          0  HIT:          0  MISS:          0
L1I PREFETCH  REQUESTED:    4294119  ISSUED:    4294119  USEFUL:     151363  USELESS:      42593
L1I AVERAGE MISS LATENCY: 16.2029 cycles
L1I

SHEET
L1I-total_access : 13376568
L1I-total_hit : 12982173
L1I-total_miss : 394395
L1I-load_access : 9137346
L1I-load_hit : 8936892
L1I-load_miss : 200454
L1I-rfo_access : 0
L1I-rfo_hit : 0
L1I-rfo_miss : 0
L1I-prefetch_access : 4239222
L1I-prefetch_hit : 4045281
L1I-prefetch_miss : 193941
L1I-writeback_access : 0
L1I-writeback_hit : 0
L1I-writeback_miss : 0
L1I-prefetch_requested : 4294119
L1I-prefetch_issued : 4294119
L1I-prefetch_useful : 151363
L1I-prefetch_useless : 42593
L1I-Avg_miss_latency : 16.2029

L2C TOTAL     ACCESS:    1180454  HIT:    1015940  MISS:     164514
L2C LOAD      ACCESS:     365564  HIT:     278797  MISS:      86767
L2C RFO       ACCESS:      18292  HIT:      12971  MISS:       5321
L2C PREFETCH  ACCESS:     717646  HIT:     645546  MISS:      72100
L2C WRITEBACK ACCESS:      78952  HIT:      78626  MISS:        326
L2C PREFETCH  REQUESTED:     674582  ISSUED:     674582  USEFUL:       5995  USELESS:      66213
L2C AVERAGE MISS LATENCY: 119.03 cycles
L2C

SHEET
L2C-total_access : 1180454
L2C-total_hit : 1015940
L2C-total_miss : 164514
L2C-load_access : 365564
L2C-load_hit : 278797
L2C-load_miss : 86767
L2C-rfo_access : 18292
L2C-rfo_hit : 12971
L2C-rfo_miss : 5321
L2C-prefetch_access : 717646
L2C-prefetch_hit : 645546
L2C-prefetch_miss : 72100
L2C-writeback_access : 78952
L2C-writeback_hit : 78626
L2C-writeback_miss : 326
L2C-prefetch_requested : 674582
L2C-prefetch_issued : 674582
L2C-prefetch_useful : 5995
L2C-prefetch_useless : 66213
L2C-Avg_miss_latency : 119.03

LLC TOTAL     ACCESS:     364712  HIT:     223570  MISS:     141142
LLC LOAD      ACCESS:      86753  HIT:      36137  MISS:      50616
LLC RFO       ACCESS:       5321  HIT:       2261  MISS:       3060
LLC PREFETCH  ACCESS:     247696  HIT:     160737  MISS:      86959
LLC WRITEBACK ACCESS:      24942  HIT:      24435  MISS:        507
LLC PREFETCH  REQUESTED:          0  ISSUED:          0  USEFUL:      15383  USELESS:      71661
LLC AVERAGE MISS LATENCY: 158.477 cycles
LLC

SHEET
LLC-total_access : 364712
LLC-total_hit : 223570
LLC-total_miss : 141142
LLC-load_access : 86753
LLC-load_hit : 36137
LLC-load_miss : 50616
LLC-rfo_access : 5321
LLC-rfo_hit : 2261
LLC-rfo_miss : 3060
LLC-prefetch_access : 247696
LLC-prefetch_hit : 160737
LLC-prefetch_miss : 86959
LLC-writeback_access : 24942
LLC-writeback_hit : 24435
LLC-writeback_miss : 507
LLC-prefetch_requested : 0
LLC-prefetch_issued : 0
LLC-prefetch_useful : 15383
LLC-prefetch_useless : 71661
LLC-Avg_miss_latency : 158.477

Major fault: 0 Minor fault: 6364
num_of_hits: 4991596
num_of_misses: 43664
hit_rate: 0.991328
observed_signatures: 8210
RAS addresses: 1541
branch_addresses: 11321
RAS match: 1254825	 RAS_mismatches: 3917	 accuracy: 0.996888

 morteza stats start 

SHEET
RAS_access_cntr : 10175599
current_block_access_cntr : 40151814
table_access_cntr : 5013422
last_block_access_cntr : 40151814
last_signature_access_cntr : 5034974
miss_log_access_cntr : 717926
prefetch_queue_access_cntr : 11023948
signature_access_cntr : 7552461
miss log count : 47


morteza stats endCPU 0 L1D next line prefetcher final stats

DRAM Statistics
 CHANNEL 0
 RQ ROW_BUFFER_HIT:      31723  ROW_BUFFER_MISS:     108910
 DBUS_CONGESTED:      56770
 WQ ROW_BUFFER_HIT:       4392  ROW_BUFFER_MISS:      12936  FULL:          0

 AVG_CONGESTED_CYCLE: 4

CPU 0 Branch Prediction Accuracy: 98.7418% MPKI: 2.47758 Average ROB Occupancy at Mispredict: 73.7317

Branch types
NOT_BRANCH: 40154100 80.3082%
BRANCH_DIRECT_JUMP: 817094 1.63419%
BRANCH_INDIRECT: 303787 0.607574%
BRANCH_CONDITIONAL: 7492103 14.9842%
BRANCH_DIRECT_CALL: 471777 0.943554%
BRANCH_INDIRECT_CALL: 144546 0.289092%
BRANCH_RETURN: 616324 1.23265%
BRANCH_OTHER: 0 0%

