Initialize SIGNATURE TABLE
ST_SET: 1
ST_WAY: 256
ST_TAG_BIT: 16
ST_TAG_MASK: ffff

Initialize PATTERN TABLE
PT_SET: 512
PT_WAY: 4
SIG_DELTA_BIT: 7
C_SIG_BIT: 4
C_DELTA_BIT: 4

Initialize PREFETCH FILTER
FILTER_SET: 1024

*** ChampSim Multicore Out-of-Order Simulator ***

Warmup Instructions: 50000000
Simulation Instructions: 50000000
Number of CPUs: 1
LLC sets: 2048
LLC ways: 16
Off-chip DRAM Size: 4096 MB Channels: 1 Width: 64-bit Data Rate: 3200 MT/s

CPU 0 runs /home/mbaradaran/ChampSim/dpc3_traces/spec_gcc_003.champsimtrace.xz
CPU 0 L1D next line prefetcher
Heartbeat CPU 0 instructions: 10000001 cycles: 3478557 heartbeat IPC: 2.87476 cumulative IPC: 2.87476 (Simulation time: 0 hr 1 min 29 sec) 
Heartbeat CPU 0 instructions: 20000000 cycles: 6943370 heartbeat IPC: 2.88616 cumulative IPC: 2.88045 (Simulation time: 0 hr 2 min 57 sec) 
Heartbeat CPU 0 instructions: 30000002 cycles: 10383699 heartbeat IPC: 2.9067 cumulative IPC: 2.88914 (Simulation time: 0 hr 4 min 10 sec) 
Heartbeat CPU 0 instructions: 40000000 cycles: 13850784 heartbeat IPC: 2.88427 cumulative IPC: 2.88792 (Simulation time: 0 hr 5 min 13 sec) 
Heartbeat CPU 0 instructions: 50000001 cycles: 17158040 heartbeat IPC: 3.02365 cumulative IPC: 2.91409 (Simulation time: 0 hr 6 min 12 sec) 

Warmup complete CPU 0 instructions: 50000001 cycles: 17158040 (Simulation time: 0 hr 6 min 12 sec) 

Heartbeat CPU 0 instructions: 60000000 cycles: 58301581 heartbeat IPC: 0.243051 cumulative IPC: 0.243051 (Simulation time: 0 hr 8 min 41 sec) 
Heartbeat CPU 0 instructions: 70000000 cycles: 102501684 heartbeat IPC: 0.226244 cumulative IPC: 0.234347 (Simulation time: 0 hr 11 min 7 sec) 
Heartbeat CPU 0 instructions: 80000002 cycles: 147529749 heartbeat IPC: 0.222084 cumulative IPC: 0.230111 (Simulation time: 0 hr 13 min 34 sec) 
Heartbeat CPU 0 instructions: 90000002 cycles: 185558854 heartbeat IPC: 0.262957 cumulative IPC: 0.237529 (Simulation time: 0 hr 15 min 44 sec) 
Heartbeat CPU 0 instructions: 100000000 cycles: 233085863 heartbeat IPC: 0.210407 cumulative IPC: 0.231559 (Simulation time: 0 hr 18 min 17 sec) 
Finished CPU 0 instructions: 50000000 cycles: 215927824 cumulative IPC: 0.231559 (Simulation time: 0 hr 18 min 17 sec) 

ChampSim completed all CPUs

Region of Interest Statistics

CPU 0 cumulative IPC: 0.231559 instructions: 50000000 cycles: 215927824

SHEET
IPC : 0.231559

L1D TOTAL     ACCESS:   17231520  HIT:   11507014  MISS:    5724506
L1D LOAD      ACCESS:    4738146  HIT:    4355799  MISS:     382347
L1D RFO       ACCESS:    8239998  HIT:    3188031  MISS:    5051967
L1D PREFETCH  ACCESS:    4253376  HIT:    3963184  MISS:     290192
L1D WRITEBACK ACCESS:          0  HIT:          0  MISS:          0
L1D PREFETCH  REQUESTED:    4756321  ISSUED:    4698592  USEFUL:     152695  USELESS:     137677
L1D AVERAGE MISS LATENCY: 497.831 cycles
L1D

SHEET
L1D-total_access : 17231520
L1D-total_hit : 11507014
L1D-total_miss : 5724506
L1D-load_access : 4738146
L1D-load_hit : 4355799
L1D-load_miss : 382347
L1D-rfo_access : 8239998
L1D-rfo_hit : 3188031
L1D-rfo_miss : 5051967
L1D-prefetch_access : 4253376
L1D-prefetch_hit : 3963184
L1D-prefetch_miss : 290192
L1D-writeback_access : 0
L1D-writeback_hit : 0
L1D-writeback_miss : 0
L1D-prefetch_requested : 4756321
L1D-prefetch_issued : 4698592
L1D-prefetch_useful : 152695
L1D-prefetch_useless : 137677
L1D-Avg_miss_latency : 497.831

L1I TOTAL     ACCESS:   12559930  HIT:   11754357  MISS:     805573
L1I LOAD      ACCESS:   11275748  HIT:   10837058  MISS:     438690
L1I RFO       ACCESS:          0  HIT:          0  MISS:          0
L1I PREFETCH  ACCESS:    1284182  HIT:     917299  MISS:     366883
L1I WRITEBACK ACCESS:          0  HIT:          0  MISS:          0
L1I PREFETCH  REQUESTED:    1612233  ISSUED:    1612187  USEFUL:     289522  USELESS:      77339
L1I AVERAGE MISS LATENCY: 46.6633 cycles
L1I

SHEET
L1I-total_access : 12559930
L1I-total_hit : 11754357
L1I-total_miss : 805573
L1I-load_access : 11275748
L1I-load_hit : 10837058
L1I-load_miss : 438690
L1I-rfo_access : 0
L1I-rfo_hit : 0
L1I-rfo_miss : 0
L1I-prefetch_access : 1284182
L1I-prefetch_hit : 917299
L1I-prefetch_miss : 366883
L1I-writeback_access : 0
L1I-writeback_hit : 0
L1I-writeback_miss : 0
L1I-prefetch_requested : 1612233
L1I-prefetch_issued : 1612187
L1I-prefetch_useful : 289522
L1I-prefetch_useless : 77339
L1I-Avg_miss_latency : 46.6633

L2C TOTAL     ACCESS:   11984313  HIT:    5988073  MISS:    5996240
L2C LOAD      ACCESS:     417505  HIT:     140595  MISS:     276910
L2C RFO       ACCESS:    5050151  HIT:       6544  MISS:    5043607
L2C PREFETCH  ACCESS:    1358698  HIT:     683207  MISS:     675491
L2C WRITEBACK ACCESS:    5157959  HIT:    5157727  MISS:        232
L2C PREFETCH  REQUESTED:    1777762  ISSUED:    1777728  USEFUL:      49531  USELESS:     622651
L2C AVERAGE MISS LATENCY: 471.048 cycles
L2C

SHEET
L2C-total_access : 11984313
L2C-total_hit : 5988073
L2C-total_miss : 5996240
L2C-load_access : 417505
L2C-load_hit : 140595
L2C-load_miss : 276910
L2C-rfo_access : 5050151
L2C-rfo_hit : 6544
L2C-rfo_miss : 5043607
L2C-prefetch_access : 1358698
L2C-prefetch_hit : 683207
L2C-prefetch_miss : 675491
L2C-writeback_access : 5157959
L2C-writeback_hit : 5157727
L2C-writeback_miss : 232
L2C-prefetch_requested : 1777762
L2C-prefetch_issued : 1777728
L2C-prefetch_useful : 49531
L2C-prefetch_useless : 622651
L2C-Avg_miss_latency : 471.048

LLC TOTAL     ACCESS:   11866251  HIT:    7104437  MISS:    4761814
LLC LOAD      ACCESS:     276860  HIT:     199583  MISS:      77277
LLC RFO       ACCESS:    5043607  HIT:     635672  MISS:    4407935
LLC PREFETCH  ACCESS:    1411691  HIT:    1135089  MISS:     276602
LLC WRITEBACK ACCESS:    5134093  HIT:    5134093  MISS:          0
LLC PREFETCH  REQUESTED:          0  ISSUED:          0  USEFUL:      31223  USELESS:     245267
LLC AVERAGE MISS LATENCY: 563.599 cycles
LLC

SHEET
LLC-total_access : 11866251
LLC-total_hit : 7104437
LLC-total_miss : 4761814
LLC-load_access : 276860
LLC-load_hit : 199583
LLC-load_miss : 77277
LLC-rfo_access : 5043607
LLC-rfo_hit : 635672
LLC-rfo_miss : 4407935
LLC-prefetch_access : 1411691
LLC-prefetch_hit : 1135089
LLC-prefetch_miss : 276602
LLC-writeback_access : 5134093
LLC-writeback_hit : 5134093
LLC-writeback_miss : 0
LLC-prefetch_requested : 0
LLC-prefetch_issued : 0
LLC-prefetch_useful : 31223
LLC-prefetch_useless : 245267
LLC-Avg_miss_latency : 563.599

Major fault: 0 Minor fault: 2817
num_of_hits: 4479107
num_of_misses: 527763
hit_rate: 0.894592
observed_signatures: 8718
RAS addresses: 1336
branch_addresses: 7121
RAS match: 1249897	 RAS_mismatches: 1522	 accuracy: 0.998784

 morteza stats start 

SHEET
RAS_access_cntr : 12339421
current_block_access_cntr : 43791390
table_access_cntr : 4743028
last_block_access_cntr : 43791390
last_signature_access_cntr : 5005686
miss_log_access_cntr : 1304007
prefetch_queue_access_cntr : 5460897
signature_access_cntr : 7508529
miss log count : 25


morteza stats endCPU 0 L1D next line prefetcher final stats

DRAM Statistics
 CHANNEL 0
 RQ ROW_BUFFER_HIT:    1451678  ROW_BUFFER_MISS:    3310096
 DBUS_CONGESTED:    8186907
 WQ ROW_BUFFER_HIT:    1203324  ROW_BUFFER_MISS:    3233694  FULL:          0

 AVG_CONGESTED_CYCLE: 6

CPU 0 Branch Prediction Accuracy: 99.665% MPKI: 0.78342 Average ROB Occupancy at Mispredict: 89.8855

Branch types
NOT_BRANCH: 38305858 76.6117%
BRANCH_DIRECT_JUMP: 384281 0.768562%
BRANCH_INDIRECT: 71949 0.143898%
BRANCH_CONDITIONAL: 9879825 19.7597%
BRANCH_DIRECT_CALL: 650586 1.30117%
BRANCH_INDIRECT_CALL: 28456 0.056912%
BRANCH_RETURN: 679046 1.35809%
BRANCH_OTHER: 0 0%

