Initialize SIGNATURE TABLE
ST_SET: 1
ST_WAY: 256
ST_TAG_BIT: 16
ST_TAG_MASK: ffff

Initialize PATTERN TABLE
PT_SET: 512
PT_WAY: 4
SIG_DELTA_BIT: 7
C_SIG_BIT: 4
C_DELTA_BIT: 4

Initialize PREFETCH FILTER
FILTER_SET: 1024
MANA initialize 
tds: 2 tdm: 2
size MANA SINGLE: 15.5 KB
size MANA NULTIPLE: 0 KB
size HOBPT: 0.703125 KB
size SRQ: 0.14502 KB
size SABs: 0.290039 KB
size prefetch queue: 0.453125 KB
total: 17.0913 KB

*** ChampSim Multicore Out-of-Order Simulator ***

Warmup Instructions: 50000000
Simulation Instructions: 50000000
Number of CPUs: 1
LLC sets: 2048
LLC ways: 16
Off-chip DRAM Size: 4096 MB Channels: 1 Width: 64-bit Data Rate: 3200 MT/s

CPU 0 runs /home/mbaradaran/ChampSim/dpc3_traces/server_038.champsimtrace.xz
CPU 0 L1D next line prefetcher
Heartbeat CPU 0 instructions: 10000001 cycles: 3326129 heartbeat IPC: 3.0065 cumulative IPC: 3.0065 (Simulation time: 0 hr 1 min 56 sec) 
Heartbeat CPU 0 instructions: 20000003 cycles: 6655073 heartbeat IPC: 3.00396 cumulative IPC: 3.00523 (Simulation time: 0 hr 3 min 36 sec) 
Heartbeat CPU 0 instructions: 30000003 cycles: 9979698 heartbeat IPC: 3.00786 cumulative IPC: 3.0061 (Simulation time: 0 hr 4 min 54 sec) 
Heartbeat CPU 0 instructions: 40000001 cycles: 13308530 heartbeat IPC: 3.00406 cumulative IPC: 3.00559 (Simulation time: 0 hr 6 min 11 sec) 
Heartbeat CPU 0 instructions: 50000001 cycles: 16634851 heartbeat IPC: 3.00632 cumulative IPC: 3.00574 (Simulation time: 0 hr 7 min 27 sec) 

Warmup complete CPU 0 instructions: 50000001 cycles: 16634851 (Simulation time: 0 hr 7 min 27 sec) 

Heartbeat CPU 0 instructions: 60000002 cycles: 23100526 heartbeat IPC: 1.54663 cumulative IPC: 1.54663 (Simulation time: 0 hr 8 min 45 sec) 
Heartbeat CPU 0 instructions: 70000001 cycles: 29520076 heartbeat IPC: 1.55774 cumulative IPC: 1.55217 (Simulation time: 0 hr 10 min 2 sec) 
Heartbeat CPU 0 instructions: 80000000 cycles: 35957749 heartbeat IPC: 1.55336 cumulative IPC: 1.55256 (Simulation time: 0 hr 11 min 17 sec) 
Heartbeat CPU 0 instructions: 90000001 cycles: 42395888 heartbeat IPC: 1.55324 cumulative IPC: 1.55273 (Simulation time: 0 hr 12 min 32 sec) 
*** Reached end of trace for Core: 0 Repeating trace: /home/mbaradaran/ChampSim/dpc3_traces/server_038.champsimtrace.xz
Heartbeat CPU 0 instructions: 100000002 cycles: 48845996 heartbeat IPC: 1.55036 cumulative IPC: 1.55226 (Simulation time: 0 hr 13 min 46 sec) 
Finished CPU 0 instructions: 50000001 cycles: 32211145 cumulative IPC: 1.55226 (Simulation time: 0 hr 13 min 46 sec) 

ChampSim completed all CPUs

Region of Interest Statistics

CPU 0 cumulative IPC: 1.55226 instructions: 50000001 cycles: 32211145

SHEET
IPC : 1.55226

L1D TOTAL     ACCESS:   18796776  HIT:   17814375  MISS:     982401
L1D LOAD      ACCESS:    6409754  HIT:    5917838  MISS:     491916
L1D RFO       ACCESS:    6213162  HIT:    6148160  MISS:      65002
L1D PREFETCH  ACCESS:    6173860  HIT:    5748377  MISS:     425483
L1D WRITEBACK ACCESS:          0  HIT:          0  MISS:          0
L1D PREFETCH  REQUESTED:    6446619  ISSUED:    6294731  USEFUL:     118742  USELESS:     306744
L1D AVERAGE MISS LATENCY: 29.1862 cycles
L1D

SHEET
L1D-total_access : 18796776
L1D-total_hit : 17814375
L1D-total_miss : 982401
L1D-load_access : 6409754
L1D-load_hit : 5917838
L1D-load_miss : 491916
L1D-rfo_access : 6213162
L1D-rfo_hit : 6148160
L1D-rfo_miss : 65002
L1D-prefetch_access : 6173860
L1D-prefetch_hit : 5748377
L1D-prefetch_miss : 425483
L1D-writeback_access : 0
L1D-writeback_hit : 0
L1D-writeback_miss : 0
L1D-prefetch_requested : 6446619
L1D-prefetch_issued : 6294731
L1D-prefetch_useful : 118742
L1D-prefetch_useless : 306744
L1D-Avg_miss_latency : 29.1862
L1D-Morteza_fill_l2_prefetches : 0

L1I TOTAL     ACCESS:   19187693  HIT:   14338161  MISS:    4849532
L1I LOAD      ACCESS:    9267737  HIT:    8713569  MISS:     554168
L1I RFO       ACCESS:          0  HIT:          0  MISS:          0
L1I PREFETCH  ACCESS:    9919956  HIT:    5624592  MISS:    4295364
L1I WRITEBACK ACCESS:          0  HIT:          0  MISS:          0
L1I PREFETCH  REQUESTED:   10660282  ISSUED:   10505024  USEFUL:    3541810  USELESS:     753544
L1I AVERAGE MISS LATENCY: 14.573 cycles
L1I

SHEET
L1I-total_access : 19187693
L1I-total_hit : 14338161
L1I-total_miss : 4849532
L1I-load_access : 9267737
L1I-load_hit : 8713569
L1I-load_miss : 554168
L1I-rfo_access : 0
L1I-rfo_hit : 0
L1I-rfo_miss : 0
L1I-prefetch_access : 9919956
L1I-prefetch_hit : 5624592
L1I-prefetch_miss : 4295364
L1I-writeback_access : 0
L1I-writeback_hit : 0
L1I-writeback_miss : 0
L1I-prefetch_requested : 10660282
L1I-prefetch_issued : 10505024
L1I-prefetch_useful : 3541810
L1I-prefetch_useless : 753544
L1I-Avg_miss_latency : 14.573
L1I-Morteza_fill_l2_prefetches : 0

L2C TOTAL     ACCESS:    8443943  HIT:    8127632  MISS:     316311
L2C LOAD      ACCESS:     884331  HIT:     740944  MISS:     143387
L2C RFO       ACCESS:      64704  HIT:      36530  MISS:      28174
L2C PREFETCH  ACCESS:    7203173  HIT:    7059234  MISS:     143939
L2C WRITEBACK ACCESS:     291735  HIT:     290924  MISS:        811
L2C PREFETCH  REQUESTED:    7436642  ISSUED:    7408134  USEFUL:       5634  USELESS:     138191
L2C AVERAGE MISS LATENCY: 45.0041 cycles
L2C

SHEET
L2C-total_access : 8443943
L2C-total_hit : 8127632
L2C-total_miss : 316311
L2C-load_access : 884331
L2C-load_hit : 740944
L2C-load_miss : 143387
L2C-rfo_access : 64704
L2C-rfo_hit : 36530
L2C-rfo_miss : 28174
L2C-prefetch_access : 7203173
L2C-prefetch_hit : 7059234
L2C-prefetch_miss : 143939
L2C-writeback_access : 291735
L2C-writeback_hit : 290924
L2C-writeback_miss : 811
L2C-prefetch_requested : 7436642
L2C-prefetch_issued : 7408134
L2C-prefetch_useful : 5634
L2C-prefetch_useless : 138191
L2C-Avg_miss_latency : 45.0041
L2C-Morteza_fill_l2_prefetches : 2353850

LLC TOTAL     ACCESS:    1658866  HIT:    1611672  MISS:      47194
LLC LOAD      ACCESS:     143375  HIT:     130751  MISS:      12624
LLC RFO       ACCESS:      28174  HIT:      23545  MISS:       4629
LLC PREFETCH  ACCESS:    1342080  HIT:    1312524  MISS:      29556
LLC WRITEBACK ACCESS:     145237  HIT:     144852  MISS:        385
LLC PREFETCH  REQUESTED:          0  ISSUED:          0  USEFUL:       3306  USELESS:      26373
LLC AVERAGE MISS LATENCY: 165.97 cycles
LLC

SHEET
LLC-total_access : 1658866
LLC-total_hit : 1611672
LLC-total_miss : 47194
LLC-load_access : 143375
LLC-load_hit : 130751
LLC-load_miss : 12624
LLC-rfo_access : 28174
LLC-rfo_hit : 23545
LLC-rfo_miss : 4629
LLC-prefetch_access : 1342080
LLC-prefetch_hit : 1312524
LLC-prefetch_miss : 29556
LLC-writeback_access : 145237
LLC-writeback_hit : 144852
LLC-writeback_miss : 385
LLC-prefetch_requested : 0
LLC-prefetch_issued : 0
LLC-prefetch_useful : 3306
LLC-prefetch_useless : 26373
LLC-Avg_miss_latency : 165.97
LLC-Morteza_fill_l2_prefetches : 1186887

Major fault: 0 Minor fault: 5526



Printing Logs
statHeadFound: 762610
statHeadMissing: 469579
statStreamBufferHit: 13351139
statPrefetchEntryFound: 6620902
statCompactorMatch: 11334410
statStreamTrackerLookup: 14583328
statRecord: 3248918
statGetPointer: 1232189
statEnqueuePrefetch: 20968587
statPrefetchQueueIsFull: 80019
StreamBufferHitRate: 0.915507
Regions' size: 868
next_region_correct: 2605550
next_region_wrong: 642482
next_region_correct_prediction: 0.802193
statStreamBufferLookups: 1049999616
statL1iLookups: 167748696
statCompactorLookups: 524999808
morteza: start

SHEET
mana_table_access_counter : 9949821
hobp_table_access_counter : 24625309
sab_access_counter : 19972041
srq_access_counter : 16758505

morteza: end
CPU 0 L1D next line prefetcher final stats

DRAM Statistics
 CHANNEL 0
 RQ ROW_BUFFER_HIT:       7601  ROW_BUFFER_MISS:      39207
 DBUS_CONGESTED:      20091
 WQ ROW_BUFFER_HIT:        987  ROW_BUFFER_MISS:      10720  FULL:          0

 AVG_CONGESTED_CYCLE: 4

CPU 0 Branch Prediction Accuracy: 99.9279% MPKI: 0.12968 Average ROB Occupancy at Mispredict: 194.884

Branch types
NOT_BRANCH: 41006308 82.0126%
BRANCH_DIRECT_JUMP: 541914 1.08383%
BRANCH_INDIRECT: 59690 0.11938%
BRANCH_CONDITIONAL: 5915845 11.8317%
BRANCH_DIRECT_CALL: 1003588 2.00718%
BRANCH_INDIRECT_CALL: 234499 0.468998%
BRANCH_RETURN: 1238071 2.47614%
BRANCH_OTHER: 0 0%

