Initialize SIGNATURE TABLE
ST_SET: 1
ST_WAY: 256
ST_TAG_BIT: 16
ST_TAG_MASK: ffff

Initialize PATTERN TABLE
PT_SET: 512
PT_WAY: 4
SIG_DELTA_BIT: 7
C_SIG_BIT: 4
C_DELTA_BIT: 4

Initialize PREFETCH FILTER
FILTER_SET: 1024
MANA initialize 
tds: 2 tdm: 2
size MANA SINGLE: 15.5 KB
size MANA NULTIPLE: 0 KB
size HOBPT: 0.703125 KB
size SRQ: 0.14502 KB
size SABs: 0.290039 KB
size prefetch queue: 0.453125 KB
total: 17.0913 KB

*** ChampSim Multicore Out-of-Order Simulator ***

Warmup Instructions: 50000000
Simulation Instructions: 50000000
Number of CPUs: 1
LLC sets: 2048
LLC ways: 16
Off-chip DRAM Size: 4096 MB Channels: 1 Width: 64-bit Data Rate: 3200 MT/s

CPU 0 runs /home/mbaradaran/ChampSim/dpc3_traces/server_035.champsimtrace.xz
CPU 0 L1D next line prefetcher
Heartbeat CPU 0 instructions: 10000001 cycles: 3338509 heartbeat IPC: 2.99535 cumulative IPC: 2.99535 (Simulation time: 0 hr 1 min 51 sec) 
Heartbeat CPU 0 instructions: 20000000 cycles: 6676488 heartbeat IPC: 2.99582 cumulative IPC: 2.99559 (Simulation time: 0 hr 3 min 50 sec) 
Heartbeat CPU 0 instructions: 30000000 cycles: 10010998 heartbeat IPC: 2.99894 cumulative IPC: 2.9967 (Simulation time: 0 hr 5 min 48 sec) 
Heartbeat CPU 0 instructions: 40000000 cycles: 13350782 heartbeat IPC: 2.99421 cumulative IPC: 2.99608 (Simulation time: 0 hr 7 min 45 sec) 
Heartbeat CPU 0 instructions: 50000003 cycles: 16687285 heartbeat IPC: 2.99715 cumulative IPC: 2.99629 (Simulation time: 0 hr 9 min 38 sec) 

Warmup complete CPU 0 instructions: 50000003 cycles: 16687285 (Simulation time: 0 hr 9 min 38 sec) 

Heartbeat CPU 0 instructions: 60000001 cycles: 25238849 heartbeat IPC: 1.16938 cumulative IPC: 1.16938 (Simulation time: 0 hr 11 min 40 sec) 
Heartbeat CPU 0 instructions: 70000003 cycles: 33428412 heartbeat IPC: 1.22107 cumulative IPC: 1.19466 (Simulation time: 0 hr 13 min 39 sec) 
Heartbeat CPU 0 instructions: 80000001 cycles: 41789892 heartbeat IPC: 1.19596 cumulative IPC: 1.19509 (Simulation time: 0 hr 15 min 39 sec) 
Heartbeat CPU 0 instructions: 90000002 cycles: 49490488 heartbeat IPC: 1.2986 cumulative IPC: 1.21939 (Simulation time: 0 hr 17 min 33 sec) 
Heartbeat CPU 0 instructions: 100000002 cycles: 57852487 heartbeat IPC: 1.19589 cumulative IPC: 1.21462 (Simulation time: 0 hr 19 min 22 sec) 
Finished CPU 0 instructions: 50000003 cycles: 41165203 cumulative IPC: 1.21462 (Simulation time: 0 hr 19 min 22 sec) 

ChampSim completed all CPUs

Region of Interest Statistics

CPU 0 cumulative IPC: 1.21462 instructions: 50000003 cycles: 41165203

SHEET
IPC : 1.21462

L1D TOTAL     ACCESS:   18349996  HIT:   16845606  MISS:    1504390
L1D LOAD      ACCESS:    6203033  HIT:    5501889  MISS:     701144
L1D RFO       ACCESS:    6157883  HIT:    6005283  MISS:     152600
L1D PREFETCH  ACCESS:    5989080  HIT:    5338434  MISS:     650646
L1D WRITEBACK ACCESS:          0  HIT:          0  MISS:          0
L1D PREFETCH  REQUESTED:    6249334  ISSUED:    6154052  USEFUL:     138603  USELESS:     512048
L1D AVERAGE MISS LATENCY: 43.4102 cycles
L1D

SHEET
L1D-total_access : 18349996
L1D-total_hit : 16845606
L1D-total_miss : 1504390
L1D-load_access : 6203033
L1D-load_hit : 5501889
L1D-load_miss : 701144
L1D-rfo_access : 6157883
L1D-rfo_hit : 6005283
L1D-rfo_miss : 152600
L1D-prefetch_access : 5989080
L1D-prefetch_hit : 5338434
L1D-prefetch_miss : 650646
L1D-writeback_access : 0
L1D-writeback_hit : 0
L1D-writeback_miss : 0
L1D-prefetch_requested : 6249334
L1D-prefetch_issued : 6154052
L1D-prefetch_useful : 138603
L1D-prefetch_useless : 512048
L1D-Avg_miss_latency : 43.4102
L1D-Morteza_fill_l2_prefetches : 0

L1I TOTAL     ACCESS:   19310025  HIT:   14848950  MISS:    4461075
L1I LOAD      ACCESS:    9575583  HIT:    8977812  MISS:     597771
L1I RFO       ACCESS:          0  HIT:          0  MISS:          0
L1I PREFETCH  ACCESS:    9734442  HIT:    5871138  MISS:    3863304
L1I WRITEBACK ACCESS:          0  HIT:          0  MISS:          0
L1I PREFETCH  REQUESTED:   10760314  ISSUED:   10509973  USEFUL:    2837905  USELESS:    1025417
L1I AVERAGE MISS LATENCY: 15.3947 cycles
L1I

SHEET
L1I-total_access : 19310025
L1I-total_hit : 14848950
L1I-total_miss : 4461075
L1I-load_access : 9575583
L1I-load_hit : 8977812
L1I-load_miss : 597771
L1I-rfo_access : 0
L1I-rfo_hit : 0
L1I-rfo_miss : 0
L1I-prefetch_access : 9734442
L1I-prefetch_hit : 5871138
L1I-prefetch_miss : 3863304
L1I-writeback_access : 0
L1I-writeback_hit : 0
L1I-writeback_miss : 0
L1I-prefetch_requested : 10760314
L1I-prefetch_issued : 10509973
L1I-prefetch_useful : 2837905
L1I-prefetch_useless : 1025417
L1I-Avg_miss_latency : 15.3947
L1I-Morteza_fill_l2_prefetches : 0

L2C TOTAL     ACCESS:    7761947  HIT:    7468849  MISS:     293098
L2C LOAD      ACCESS:    1154718  HIT:    1029451  MISS:     125267
L2C RFO       ACCESS:     150867  HIT:     130387  MISS:      20480
L2C PREFETCH  ACCESS:    6091389  HIT:    5944934  MISS:     146455
L2C WRITEBACK ACCESS:     364973  HIT:     364077  MISS:        896
L2C PREFETCH  REQUESTED:    6848115  ISSUED:    6839640  USEFUL:      14485  USELESS:     131227
L2C AVERAGE MISS LATENCY: 162.163 cycles
L2C

SHEET
L2C-total_access : 7761947
L2C-total_hit : 7468849
L2C-total_miss : 293098
L2C-load_access : 1154718
L2C-load_hit : 1029451
L2C-load_miss : 125267
L2C-rfo_access : 150867
L2C-rfo_hit : 130387
L2C-rfo_miss : 20480
L2C-prefetch_access : 6091389
L2C-prefetch_hit : 5944934
L2C-prefetch_miss : 146455
L2C-writeback_access : 364973
L2C-writeback_hit : 364077
L2C-writeback_miss : 896
L2C-prefetch_requested : 6848115
L2C-prefetch_issued : 6839640
L2C-prefetch_useful : 14485
L2C-prefetch_useless : 131227
L2C-Avg_miss_latency : 162.163
L2C-Morteza_fill_l2_prefetches : 1452572

LLC TOTAL     ACCESS:    2227760  HIT:    1947930  MISS:     279830
LLC LOAD      ACCESS:     124855  HIT:      40903  MISS:      83952
LLC RFO       ACCESS:      20478  HIT:      10506  MISS:       9972
LLC PREFETCH  ACCESS:    1981385  HIT:    1796523  MISS:     184862
LLC WRITEBACK ACCESS:     101042  HIT:      99998  MISS:       1044
LLC PREFETCH  REQUESTED:          0  ISSUED:          0  USEFUL:      31823  USELESS:     152410
LLC AVERAGE MISS LATENCY: 215.715 cycles
LLC

SHEET
LLC-total_access : 2227760
LLC-total_hit : 1947930
LLC-total_miss : 279830
LLC-load_access : 124855
LLC-load_hit : 40903
LLC-load_miss : 83952
LLC-rfo_access : 20478
LLC-rfo_hit : 10506
LLC-rfo_miss : 9972
LLC-prefetch_access : 1981385
LLC-prefetch_hit : 1796523
LLC-prefetch_miss : 184862
LLC-writeback_access : 101042
LLC-writeback_hit : 99998
LLC-writeback_miss : 1044
LLC-prefetch_requested : 0
LLC-prefetch_issued : 0
LLC-prefetch_useful : 31823
LLC-prefetch_useless : 152410
LLC-Avg_miss_latency : 215.715
LLC-Morteza_fill_l2_prefetches : 1738911

Major fault: 0 Minor fault: 5547



Printing Logs
statHeadFound: 809567
statHeadMissing: 505374
statStreamBufferHit: 13774930
statPrefetchEntryFound: 6882929
statCompactorMatch: 12015155
statStreamTrackerLookup: 15089871
statRecord: 3074716
statGetPointer: 1314941
statEnqueuePrefetch: 20801571
statPrefetchQueueIsFull: 5322
StreamBufferHitRate: 0.912859
Regions' size: 1341
next_region_correct: 2384321
next_region_wrong: 689036
next_region_correct_prediction: 0.775803
statStreamBufferLookups: 1086470712
statL1iLookups: 166412568
statCompactorLookups: 543235356
morteza: start

SHEET
mana_table_access_counter : 9962949
hobp_table_access_counter : 24446837
sab_access_counter : 20657859
srq_access_counter : 16698922

morteza: end
CPU 0 L1D next line prefetcher final stats

DRAM Statistics
 CHANNEL 0
 RQ ROW_BUFFER_HIT:      71186  ROW_BUFFER_MISS:     207593
 DBUS_CONGESTED:     163021
 WQ ROW_BUFFER_HIT:      17811  ROW_BUFFER_MISS:      72938  FULL:          0

 AVG_CONGESTED_CYCLE: 5

CPU 0 Branch Prediction Accuracy: 99.9115% MPKI: 0.17232 Average ROB Occupancy at Mispredict: 195.111

Branch types
NOT_BRANCH: 40267264 80.5345%
BRANCH_DIRECT_JUMP: 771899 1.5438%
BRANCH_INDIRECT: 108179 0.216358%
BRANCH_CONDITIONAL: 6307172 12.6143%
BRANCH_DIRECT_CALL: 1060893 2.12179%
BRANCH_INDIRECT_CALL: 211719 0.423438%
BRANCH_RETURN: 1272635 2.54527%
BRANCH_OTHER: 0 0%

