Initialize SIGNATURE TABLE
ST_SET: 1
ST_WAY: 256
ST_TAG_BIT: 16
ST_TAG_MASK: ffff

Initialize PATTERN TABLE
PT_SET: 512
PT_WAY: 4
SIG_DELTA_BIT: 7
C_SIG_BIT: 4
C_DELTA_BIT: 4

Initialize PREFETCH FILTER
FILTER_SET: 1024
MANA initialize 
tds: 2 tdm: 2
size MANA SINGLE: 15.5 KB
size MANA NULTIPLE: 0 KB
size HOBPT: 0.703125 KB
size SRQ: 0.14502 KB
size SABs: 0.290039 KB
size prefetch queue: 0.453125 KB
total: 17.0913 KB

*** ChampSim Multicore Out-of-Order Simulator ***

Warmup Instructions: 50000000
Simulation Instructions: 50000000
Number of CPUs: 1
LLC sets: 2048
LLC ways: 16
Off-chip DRAM Size: 4096 MB Channels: 1 Width: 64-bit Data Rate: 3200 MT/s

CPU 0 runs /home/mbaradaran/ChampSim/dpc3_traces/server_024.champsimtrace.xz
CPU 0 L1D next line prefetcher
Heartbeat CPU 0 instructions: 10000000 cycles: 3508074 heartbeat IPC: 2.85057 cumulative IPC: 2.85057 (Simulation time: 0 hr 1 min 58 sec) 
Heartbeat CPU 0 instructions: 20000002 cycles: 7009123 heartbeat IPC: 2.85629 cumulative IPC: 2.85342 (Simulation time: 0 hr 3 min 55 sec) 
Heartbeat CPU 0 instructions: 30000000 cycles: 10521397 heartbeat IPC: 2.84716 cumulative IPC: 2.85133 (Simulation time: 0 hr 5 min 48 sec) 
Heartbeat CPU 0 instructions: 40000000 cycles: 14030026 heartbeat IPC: 2.85012 cumulative IPC: 2.85103 (Simulation time: 0 hr 7 min 48 sec) 
Heartbeat CPU 0 instructions: 50000001 cycles: 17528442 heartbeat IPC: 2.85844 cumulative IPC: 2.85251 (Simulation time: 0 hr 9 min 44 sec) 

Warmup complete CPU 0 instructions: 50000001 cycles: 17528442 (Simulation time: 0 hr 9 min 44 sec) 

Heartbeat CPU 0 instructions: 60000003 cycles: 24705885 heartbeat IPC: 1.39325 cumulative IPC: 1.39325 (Simulation time: 0 hr 11 min 25 sec) 
Heartbeat CPU 0 instructions: 70000000 cycles: 31913948 heartbeat IPC: 1.38733 cumulative IPC: 1.39029 (Simulation time: 0 hr 13 min 13 sec) 
*** Reached end of trace for Core: 0 Repeating trace: /home/mbaradaran/ChampSim/dpc3_traces/server_024.champsimtrace.xz
Heartbeat CPU 0 instructions: 80000003 cycles: 39079323 heartbeat IPC: 1.3956 cumulative IPC: 1.39205 (Simulation time: 0 hr 15 min 5 sec) 
Heartbeat CPU 0 instructions: 90000003 cycles: 46304771 heartbeat IPC: 1.384 cumulative IPC: 1.39003 (Simulation time: 0 hr 16 min 54 sec) 
Heartbeat CPU 0 instructions: 100000002 cycles: 53500397 heartbeat IPC: 1.38973 cumulative IPC: 1.38997 (Simulation time: 0 hr 18 min 39 sec) 
Finished CPU 0 instructions: 50000001 cycles: 35971955 cumulative IPC: 1.38997 (Simulation time: 0 hr 18 min 39 sec) 

ChampSim completed all CPUs

Region of Interest Statistics

CPU 0 cumulative IPC: 1.38997 instructions: 50000001 cycles: 35971955

SHEET
IPC : 1.38997

L1D TOTAL     ACCESS:   20140720  HIT:   18622956  MISS:    1517764
L1D LOAD      ACCESS:    7153884  HIT:    6473711  MISS:     680173
L1D RFO       ACCESS:    6160003  HIT:    5886090  MISS:     273913
L1D PREFETCH  ACCESS:    6826833  HIT:    6263155  MISS:     563678
L1D WRITEBACK ACCESS:          0  HIT:          0  MISS:          0
L1D PREFETCH  REQUESTED:    7207079  ISSUED:    7089479  USEFUL:     136296  USELESS:     427386
L1D AVERAGE MISS LATENCY: 25.0283 cycles
L1D

SHEET
L1D-total_access : 20140720
L1D-total_hit : 18622956
L1D-total_miss : 1517764
L1D-load_access : 7153884
L1D-load_hit : 6473711
L1D-load_miss : 680173
L1D-rfo_access : 6160003
L1D-rfo_hit : 5886090
L1D-rfo_miss : 273913
L1D-prefetch_access : 6826833
L1D-prefetch_hit : 6263155
L1D-prefetch_miss : 563678
L1D-writeback_access : 0
L1D-writeback_hit : 0
L1D-writeback_miss : 0
L1D-prefetch_requested : 7207079
L1D-prefetch_issued : 7089479
L1D-prefetch_useful : 136296
L1D-prefetch_useless : 427386
L1D-Avg_miss_latency : 25.0283
L1D-Morteza_fill_l2_prefetches : 0

L1I TOTAL     ACCESS:   18642233  HIT:   14694773  MISS:    3947460
L1I LOAD      ACCESS:    9120251  HIT:    8397377  MISS:     722874
L1I RFO       ACCESS:          0  HIT:          0  MISS:          0
L1I PREFETCH  ACCESS:    9521982  HIT:    6297396  MISS:    3224586
L1I WRITEBACK ACCESS:          0  HIT:          0  MISS:          0
L1I PREFETCH  REQUESTED:   10545111  ISSUED:   10289537  USEFUL:    1892793  USELESS:    1331799
L1I AVERAGE MISS LATENCY: 16.5343 cycles
L1I

SHEET
L1I-total_access : 18642233
L1I-total_hit : 14694773
L1I-total_miss : 3947460
L1I-load_access : 9120251
L1I-load_hit : 8397377
L1I-load_miss : 722874
L1I-rfo_access : 0
L1I-rfo_hit : 0
L1I-rfo_miss : 0
L1I-prefetch_access : 9521982
L1I-prefetch_hit : 6297396
L1I-prefetch_miss : 3224586
L1I-writeback_access : 0
L1I-writeback_hit : 0
L1I-writeback_miss : 0
L1I-prefetch_requested : 10545111
L1I-prefetch_issued : 10289537
L1I-prefetch_useful : 1892793
L1I-prefetch_useless : 1331799
L1I-Avg_miss_latency : 16.5343
L1I-Morteza_fill_l2_prefetches : 0

L2C TOTAL     ACCESS:    7342870  HIT:    6699799  MISS:     643071
L2C LOAD      ACCESS:    1174284  HIT:     992934  MISS:     181350
L2C RFO       ACCESS:     272281  HIT:     185694  MISS:      86587
L2C PREFETCH  ACCESS:    5376113  HIT:    5004287  MISS:     371826
L2C WRITEBACK ACCESS:     520192  HIT:     516884  MISS:       3308
L2C PREFETCH  REQUESTED:    6116051  ISSUED:    6104743  USEFUL:      26667  USELESS:     344045
L2C AVERAGE MISS LATENCY: 44.8119 cycles
L2C

SHEET
L2C-total_access : 7342870
L2C-total_hit : 6699799
L2C-total_miss : 643071
L2C-load_access : 1174284
L2C-load_hit : 992934
L2C-load_miss : 181350
L2C-rfo_access : 272281
L2C-rfo_hit : 185694
L2C-rfo_miss : 86587
L2C-prefetch_access : 5376113
L2C-prefetch_hit : 5004287
L2C-prefetch_miss : 371826
L2C-writeback_access : 520192
L2C-writeback_hit : 516884
L2C-writeback_miss : 3308
L2C-prefetch_requested : 6116051
L2C-prefetch_issued : 6104743
L2C-prefetch_useful : 26667
L2C-prefetch_useless : 344045
L2C-Avg_miss_latency : 44.8119
L2C-Morteza_fill_l2_prefetches : 1400889

LLC TOTAL     ACCESS:    2371344  HIT:    2320138  MISS:      51206
LLC LOAD      ACCESS:     181079  HIT:     175388  MISS:       5691
LLC RFO       ACCESS:      86586  HIT:      64468  MISS:      22118
LLC PREFETCH  ACCESS:    1964818  HIT:    1941695  MISS:      23123
LLC WRITEBACK ACCESS:     138861  HIT:     138587  MISS:        274
LLC PREFETCH  REQUESTED:          0  ISSUED:          0  USEFUL:       2183  USELESS:      20820
LLC AVERAGE MISS LATENCY: 199.618 cycles
LLC

SHEET
LLC-total_access : 2371344
LLC-total_hit : 2320138
LLC-total_miss : 51206
LLC-load_access : 181079
LLC-load_hit : 175388
LLC-load_miss : 5691
LLC-rfo_access : 86586
LLC-rfo_hit : 64468
LLC-rfo_miss : 22118
LLC-prefetch_access : 1964818
LLC-prefetch_hit : 1941695
LLC-prefetch_miss : 23123
LLC-writeback_access : 138861
LLC-writeback_hit : 138587
LLC-writeback_miss : 274
LLC-prefetch_requested : 0
LLC-prefetch_issued : 0
LLC-prefetch_useful : 2183
LLC-prefetch_useless : 20820
LLC-Avg_miss_latency : 199.618
LLC-Morteza_fill_l2_prefetches : 1600125

Major fault: 0 Minor fault: 2362



Printing Logs
statHeadFound: 973426
statHeadMissing: 1197634
statStreamBufferHit: 11931693
statPrefetchEntryFound: 6800290
statCompactorMatch: 11757633
statStreamTrackerLookup: 14102753
statRecord: 2345120
statGetPointer: 2171060
statEnqueuePrefetch: 20567238
statPrefetchQueueIsFull: 51181
StreamBufferHitRate: 0.846054
Regions' size: 2157
next_region_correct: 1580948
next_region_wrong: 761997
next_region_correct_prediction: 0.67477
statStreamBufferLookups: 1015398216
statL1iLookups: 164537904
statCompactorLookups: 507699108
morteza: start

SHEET
mana_table_access_counter : 9196573
hobp_table_access_counter : 24916191
sab_access_counter : 18731983
srq_access_counter : 15101870

morteza: end
CPU 0 L1D next line prefetcher final stats

DRAM Statistics
 CHANNEL 0
 RQ ROW_BUFFER_HIT:      17504  ROW_BUFFER_MISS:      33423
 DBUS_CONGESTED:      38460
 WQ ROW_BUFFER_HIT:       2748  ROW_BUFFER_MISS:      22952  FULL:          0

 AVG_CONGESTED_CYCLE: 6

CPU 0 Branch Prediction Accuracy: 99.7477% MPKI: 0.46156 Average ROB Occupancy at Mispredict: 146.926

Branch types
NOT_BRANCH: 40853595 81.7072%
BRANCH_DIRECT_JUMP: 566814 1.13363%
BRANCH_INDIRECT: 197171 0.394342%
BRANCH_CONDITIONAL: 6308406 12.6168%
BRANCH_DIRECT_CALL: 876399 1.7528%
BRANCH_INDIRECT_CALL: 160491 0.320982%
BRANCH_RETURN: 1036885 2.07377%
BRANCH_OTHER: 0 0%

