Initialize SIGNATURE TABLE
ST_SET: 1
ST_WAY: 256
ST_TAG_BIT: 16
ST_TAG_MASK: ffff

Initialize PATTERN TABLE
PT_SET: 512
PT_WAY: 4
SIG_DELTA_BIT: 7
C_SIG_BIT: 4
C_DELTA_BIT: 4

Initialize PREFETCH FILTER
FILTER_SET: 1024
MANA initialize 
tds: 2 tdm: 2
size MANA SINGLE: 15.5 KB
size MANA NULTIPLE: 0 KB
size HOBPT: 0.703125 KB
size SRQ: 0.14502 KB
size SABs: 0.290039 KB
size prefetch queue: 0.453125 KB
total: 17.0913 KB

*** ChampSim Multicore Out-of-Order Simulator ***

Warmup Instructions: 50000000
Simulation Instructions: 50000000
Number of CPUs: 1
LLC sets: 2048
LLC ways: 16
Off-chip DRAM Size: 4096 MB Channels: 1 Width: 64-bit Data Rate: 3200 MT/s

CPU 0 runs /home/mbaradaran/ChampSim/dpc3_traces/server_030.champsimtrace.xz
CPU 0 L1D next line prefetcher
Heartbeat CPU 0 instructions: 10000003 cycles: 3518463 heartbeat IPC: 2.84215 cumulative IPC: 2.84215 (Simulation time: 0 hr 2 min 0 sec) 
Heartbeat CPU 0 instructions: 20000003 cycles: 7036484 heartbeat IPC: 2.84251 cumulative IPC: 2.84233 (Simulation time: 0 hr 3 min 58 sec) 
Heartbeat CPU 0 instructions: 30000000 cycles: 10553192 heartbeat IPC: 2.84357 cumulative IPC: 2.84274 (Simulation time: 0 hr 5 min 59 sec) 
Heartbeat CPU 0 instructions: 40000002 cycles: 14070295 heartbeat IPC: 2.84325 cumulative IPC: 2.84287 (Simulation time: 0 hr 7 min 57 sec) 
Heartbeat CPU 0 instructions: 50000002 cycles: 17590577 heartbeat IPC: 2.84068 cumulative IPC: 2.84243 (Simulation time: 0 hr 9 min 59 sec) 

Warmup complete CPU 0 instructions: 50000002 cycles: 17590577 (Simulation time: 0 hr 9 min 59 sec) 

Heartbeat CPU 0 instructions: 60000000 cycles: 24926152 heartbeat IPC: 1.36322 cumulative IPC: 1.36322 (Simulation time: 0 hr 11 min 55 sec) 
Heartbeat CPU 0 instructions: 70000000 cycles: 32289914 heartbeat IPC: 1.358 cumulative IPC: 1.36061 (Simulation time: 0 hr 13 min 52 sec) 
Heartbeat CPU 0 instructions: 80000001 cycles: 39613737 heartbeat IPC: 1.36541 cumulative IPC: 1.3622 (Simulation time: 0 hr 15 min 41 sec) 
*** Reached end of trace for Core: 0 Repeating trace: /home/mbaradaran/ChampSim/dpc3_traces/server_030.champsimtrace.xz
Heartbeat CPU 0 instructions: 90000002 cycles: 46959620 heartbeat IPC: 1.36131 cumulative IPC: 1.36198 (Simulation time: 0 hr 17 min 38 sec) 
Heartbeat CPU 0 instructions: 100000002 cycles: 54262544 heartbeat IPC: 1.36931 cumulative IPC: 1.36344 (Simulation time: 0 hr 19 min 31 sec) 
Finished CPU 0 instructions: 50000000 cycles: 36671967 cumulative IPC: 1.36344 (Simulation time: 0 hr 19 min 31 sec) 

ChampSim completed all CPUs

Region of Interest Statistics

CPU 0 cumulative IPC: 1.36344 instructions: 50000000 cycles: 36671967

SHEET
IPC : 1.36344

L1D TOTAL     ACCESS:   19563375  HIT:   17486844  MISS:    2076531
L1D LOAD      ACCESS:    6958355  HIT:    5906590  MISS:    1051765
L1D RFO       ACCESS:    6185473  HIT:    5899802  MISS:     285671
L1D PREFETCH  ACCESS:    6419547  HIT:    5680452  MISS:     739095
L1D WRITEBACK ACCESS:          0  HIT:          0  MISS:          0
L1D PREFETCH  REQUESTED:    7009072  ISSUED:    6885144  USEFUL:     183392  USELESS:     555796
L1D AVERAGE MISS LATENCY: 18.3664 cycles
L1D

SHEET
L1D-total_access : 19563375
L1D-total_hit : 17486844
L1D-total_miss : 2076531
L1D-load_access : 6958355
L1D-load_hit : 5906590
L1D-load_miss : 1051765
L1D-rfo_access : 6185473
L1D-rfo_hit : 5899802
L1D-rfo_miss : 285671
L1D-prefetch_access : 6419547
L1D-prefetch_hit : 5680452
L1D-prefetch_miss : 739095
L1D-writeback_access : 0
L1D-writeback_hit : 0
L1D-writeback_miss : 0
L1D-prefetch_requested : 7009072
L1D-prefetch_issued : 6885144
L1D-prefetch_useful : 183392
L1D-prefetch_useless : 555796
L1D-Avg_miss_latency : 18.3664
L1D-Morteza_fill_l2_prefetches : 0

L1I TOTAL     ACCESS:   19560652  HIT:   15034181  MISS:    4526471
L1I LOAD      ACCESS:    9529465  HIT:    8701427  MISS:     828038
L1I RFO       ACCESS:          0  HIT:          0  MISS:          0
L1I PREFETCH  ACCESS:   10031187  HIT:    6332754  MISS:    3698433
L1I WRITEBACK ACCESS:          0  HIT:          0  MISS:          0
L1I PREFETCH  REQUESTED:   11193228  ISSUED:   10886442  USEFUL:    2235449  USELESS:    1463057
L1I AVERAGE MISS LATENCY: 16.1113 cycles
L1I

SHEET
L1I-total_access : 19560652
L1I-total_hit : 15034181
L1I-total_miss : 4526471
L1I-load_access : 9529465
L1I-load_hit : 8701427
L1I-load_miss : 828038
L1I-rfo_access : 0
L1I-rfo_hit : 0
L1I-rfo_miss : 0
L1I-prefetch_access : 10031187
L1I-prefetch_hit : 6332754
L1I-prefetch_miss : 3698433
L1I-writeback_access : 0
L1I-writeback_hit : 0
L1I-writeback_miss : 0
L1I-prefetch_requested : 11193228
L1I-prefetch_issued : 10886442
L1I-prefetch_useful : 2235449
L1I-prefetch_useless : 1463057
L1I-Avg_miss_latency : 16.1113
L1I-Morteza_fill_l2_prefetches : 0

L2C TOTAL     ACCESS:    9169632  HIT:    8586968  MISS:     582664
L2C LOAD      ACCESS:    1514880  HIT:    1333572  MISS:     181308
L2C RFO       ACCESS:     283406  HIT:     232767  MISS:      50639
L2C PREFETCH  ACCESS:    6755987  HIT:    6409081  MISS:     346906
L2C WRITEBACK ACCESS:     615359  HIT:     611548  MISS:       3811
L2C PREFETCH  REQUESTED:    8617093  ISSUED:    8572581  USEFUL:      22144  USELESS:     324010
L2C AVERAGE MISS LATENCY: 34.6796 cycles
L2C

SHEET
L2C-total_access : 9169632
L2C-total_hit : 8586968
L2C-total_miss : 582664
L2C-load_access : 1514880
L2C-load_hit : 1333572
L2C-load_miss : 181308
L2C-rfo_access : 283406
L2C-rfo_hit : 232767
L2C-rfo_miss : 50639
L2C-prefetch_access : 6755987
L2C-prefetch_hit : 6409081
L2C-prefetch_miss : 346906
L2C-writeback_access : 615359
L2C-writeback_hit : 611548
L2C-writeback_miss : 3811
L2C-prefetch_requested : 8617093
L2C-prefetch_issued : 8572581
L2C-prefetch_useful : 22144
L2C-prefetch_useless : 324010
L2C-Avg_miss_latency : 34.6796
L2C-Morteza_fill_l2_prefetches : 2031294

LLC TOTAL     ACCESS:    2875059  HIT:    2856473  MISS:      18586
LLC LOAD      ACCESS:     180785  HIT:     178147  MISS:       2638
LLC RFO       ACCESS:      50637  HIT:      48896  MISS:       1741
LLC PREFETCH  ACCESS:    2543504  HIT:    2529401  MISS:      14103
LLC WRITEBACK ACCESS:     100133  HIT:     100029  MISS:        104
LLC PREFETCH  REQUESTED:          0  ISSUED:          0  USEFUL:        935  USELESS:      11993
LLC AVERAGE MISS LATENCY: 144.772 cycles
LLC

SHEET
LLC-total_access : 2875059
LLC-total_hit : 2856473
LLC-total_miss : 18586
LLC-load_access : 180785
LLC-load_hit : 178147
LLC-load_miss : 2638
LLC-rfo_access : 50637
LLC-rfo_hit : 48896
LLC-rfo_miss : 1741
LLC-prefetch_access : 2543504
LLC-prefetch_hit : 2529401
LLC-prefetch_miss : 14103
LLC-writeback_access : 100133
LLC-writeback_hit : 100029
LLC-writeback_miss : 104
LLC-prefetch_requested : 0
LLC-prefetch_issued : 0
LLC-prefetch_useful : 935
LLC-prefetch_useless : 11993
LLC-Avg_miss_latency : 144.772
LLC-Morteza_fill_l2_prefetches : 2204034

Major fault: 0 Minor fault: 2039



Printing Logs
statHeadFound: 1052826
statHeadMissing: 1030415
statStreamBufferHit: 12435290
statPrefetchEntryFound: 7293705
statCompactorMatch: 11786310
statStreamTrackerLookup: 14518531
statRecord: 2732221
statGetPointer: 2083241
statEnqueuePrefetch: 21628174
statPrefetchQueueIsFull: 105195
StreamBufferHitRate: 0.856512
Regions' size: 1930
next_region_correct: 1933442
next_region_wrong: 796831
next_region_correct_prediction: 0.70815
statStreamBufferLookups: 1045334232
statL1iLookups: 173025392
statCompactorLookups: 522667116
morteza: start

SHEET
mana_table_access_counter : 10131103
hobp_table_access_counter : 26660745
sab_access_counter : 19728995
srq_access_counter : 15953104

morteza: end
CPU 0 L1D next line prefetcher final stats

DRAM Statistics
 CHANNEL 0
 RQ ROW_BUFFER_HIT:       6178  ROW_BUFFER_MISS:      12304
 DBUS_CONGESTED:       6635
 WQ ROW_BUFFER_HIT:        128  ROW_BUFFER_MISS:       2103  FULL:          0

 AVG_CONGESTED_CYCLE: 5

CPU 0 Branch Prediction Accuracy: 99.8445% MPKI: 0.29148 Average ROB Occupancy at Mispredict: 146.828

Branch types
NOT_BRANCH: 40628082 81.2562%
BRANCH_DIRECT_JUMP: 490941 0.981882%
BRANCH_INDIRECT: 175854 0.351708%
BRANCH_CONDITIONAL: 6321416 12.6428%
BRANCH_DIRECT_CALL: 1002072 2.00414%
BRANCH_INDIRECT_CALL: 189783 0.379566%
BRANCH_RETURN: 1191851 2.3837%
BRANCH_OTHER: 0 0%

