Initialize SIGNATURE TABLE
ST_SET: 1
ST_WAY: 256
ST_TAG_BIT: 16
ST_TAG_MASK: ffff

Initialize PATTERN TABLE
PT_SET: 512
PT_WAY: 4
SIG_DELTA_BIT: 7
C_SIG_BIT: 4
C_DELTA_BIT: 4

Initialize PREFETCH FILTER
FILTER_SET: 1024
MANA initialize 
tds: 2 tdm: 2
size MANA SINGLE: 15.5 KB
size MANA NULTIPLE: 0 KB
size HOBPT: 0.703125 KB
size SRQ: 0.14502 KB
size SABs: 0.290039 KB
size prefetch queue: 0.453125 KB
total: 17.0913 KB

*** ChampSim Multicore Out-of-Order Simulator ***

Warmup Instructions: 50000000
Simulation Instructions: 50000000
Number of CPUs: 1
LLC sets: 2048
LLC ways: 16
Off-chip DRAM Size: 4096 MB Channels: 1 Width: 64-bit Data Rate: 3200 MT/s

CPU 0 runs /home/mbaradaran/ChampSim/dpc3_traces/server_021.champsimtrace.xz
CPU 0 L1D next line prefetcher
Heartbeat CPU 0 instructions: 10000000 cycles: 3624672 heartbeat IPC: 2.75887 cumulative IPC: 2.75887 (Simulation time: 0 hr 2 min 1 sec) 
Heartbeat CPU 0 instructions: 20000000 cycles: 7244400 heartbeat IPC: 2.76264 cumulative IPC: 2.76075 (Simulation time: 0 hr 4 min 0 sec) 
Heartbeat CPU 0 instructions: 30000003 cycles: 10894307 heartbeat IPC: 2.7398 cumulative IPC: 2.75373 (Simulation time: 0 hr 6 min 4 sec) 
Heartbeat CPU 0 instructions: 40000001 cycles: 14508809 heartbeat IPC: 2.76663 cumulative IPC: 2.75695 (Simulation time: 0 hr 7 min 59 sec) 
Heartbeat CPU 0 instructions: 50000002 cycles: 18145354 heartbeat IPC: 2.74986 cumulative IPC: 2.75553 (Simulation time: 0 hr 9 min 52 sec) 

Warmup complete CPU 0 instructions: 50000002 cycles: 18145354 (Simulation time: 0 hr 9 min 52 sec) 

Heartbeat CPU 0 instructions: 60000001 cycles: 34977332 heartbeat IPC: 0.594107 cumulative IPC: 0.594107 (Simulation time: 0 hr 12 min 30 sec) 
Heartbeat CPU 0 instructions: 70000002 cycles: 52049177 heartbeat IPC: 0.58576 cumulative IPC: 0.589904 (Simulation time: 0 hr 15 min 13 sec) 
Heartbeat CPU 0 instructions: 80000001 cycles: 68917156 heartbeat IPC: 0.592839 cumulative IPC: 0.590879 (Simulation time: 0 hr 17 min 52 sec) 
Heartbeat CPU 0 instructions: 90000001 cycles: 86052418 heartbeat IPC: 0.583592 cumulative IPC: 0.58904 (Simulation time: 0 hr 20 min 26 sec) 
Heartbeat CPU 0 instructions: 100000002 cycles: 103009854 heartbeat IPC: 0.589712 cumulative IPC: 0.589175 (Simulation time: 0 hr 22 min 47 sec) 
Finished CPU 0 instructions: 50000000 cycles: 84864500 cumulative IPC: 0.589175 (Simulation time: 0 hr 22 min 47 sec) 

ChampSim completed all CPUs

Region of Interest Statistics

CPU 0 cumulative IPC: 0.589175 instructions: 50000000 cycles: 84864500

SHEET
IPC : 0.589175

L1D TOTAL     ACCESS:   18747530  HIT:   16544023  MISS:    2203507
L1D LOAD      ACCESS:    7076385  HIT:    6368900  MISS:     707485
L1D RFO       ACCESS:    5888711  HIT:    4913142  MISS:     975569
L1D PREFETCH  ACCESS:    5782434  HIT:    5261981  MISS:     520453
L1D WRITEBACK ACCESS:          0  HIT:          0  MISS:          0
L1D PREFETCH  REQUESTED:    7118885  ISSUED:    6913570  USEFUL:     199155  USELESS:     321292
L1D AVERAGE MISS LATENCY: 177.3 cycles
L1D

SHEET
L1D-total_access : 18747530
L1D-total_hit : 16544023
L1D-total_miss : 2203507
L1D-load_access : 7076385
L1D-load_hit : 6368900
L1D-load_miss : 707485
L1D-rfo_access : 5888711
L1D-rfo_hit : 4913142
L1D-rfo_miss : 975569
L1D-prefetch_access : 5782434
L1D-prefetch_hit : 5261981
L1D-prefetch_miss : 520453
L1D-writeback_access : 0
L1D-writeback_hit : 0
L1D-writeback_miss : 0
L1D-prefetch_requested : 7118885
L1D-prefetch_issued : 6913570
L1D-prefetch_useful : 199155
L1D-prefetch_useless : 321292
L1D-Avg_miss_latency : 177.3
L1D-Morteza_fill_l2_prefetches : 0

L1I TOTAL     ACCESS:   17349901  HIT:   14805862  MISS:    2544039
L1I LOAD      ACCESS:   10060632  HIT:    9812797  MISS:     247835
L1I RFO       ACCESS:          0  HIT:          0  MISS:          0
L1I PREFETCH  ACCESS:    7289269  HIT:    4993065  MISS:    2296204
L1I WRITEBACK ACCESS:          0  HIT:          0  MISS:          0
L1I PREFETCH  REQUESTED:    7672838  ISSUED:    7581766  USEFUL:    2111126  USELESS:     185066
L1I AVERAGE MISS LATENCY: 17.3841 cycles
L1I

SHEET
L1I-total_access : 17349901
L1I-total_hit : 14805862
L1I-total_miss : 2544039
L1I-load_access : 10060632
L1I-load_hit : 9812797
L1I-load_miss : 247835
L1I-rfo_access : 0
L1I-rfo_hit : 0
L1I-rfo_miss : 0
L1I-prefetch_access : 7289269
L1I-prefetch_hit : 4993065
L1I-prefetch_miss : 2296204
L1I-writeback_access : 0
L1I-writeback_hit : 0
L1I-writeback_miss : 0
L1I-prefetch_requested : 7672838
L1I-prefetch_issued : 7581766
L1I-prefetch_useful : 2111126
L1I-prefetch_useless : 185066
L1I-Avg_miss_latency : 17.3841
L1I-Morteza_fill_l2_prefetches : 0

L2C TOTAL     ACCESS:    6897179  HIT:    5034124  MISS:    1863055
L2C LOAD      ACCESS:     645962  HIT:     389044  MISS:     256918
L2C RFO       ACCESS:     975032  HIT:      21397  MISS:     953635
L2C PREFETCH  ACCESS:    4096271  HIT:    3446478  MISS:     649793
L2C WRITEBACK ACCESS:    1179914  HIT:    1177205  MISS:       2709
L2C PREFETCH  REQUESTED:    3981347  ISSUED:    3976660  USEFUL:      24813  USELESS:     624924
L2C AVERAGE MISS LATENCY: 215.818 cycles
L2C

SHEET
L2C-total_access : 6897179
L2C-total_hit : 5034124
L2C-total_miss : 1863055
L2C-load_access : 645962
L2C-load_hit : 389044
L2C-load_miss : 256918
L2C-rfo_access : 975032
L2C-rfo_hit : 21397
L2C-rfo_miss : 953635
L2C-prefetch_access : 4096271
L2C-prefetch_hit : 3446478
L2C-prefetch_miss : 649793
L2C-writeback_access : 1179914
L2C-writeback_hit : 1177205
L2C-writeback_miss : 2709
L2C-prefetch_requested : 3981347
L2C-prefetch_issued : 3976660
L2C-prefetch_useful : 24813
L2C-prefetch_useless : 624924
L2C-Avg_miss_latency : 215.818
L2C-Morteza_fill_l2_prefetches : 990224

LLC TOTAL     ACCESS:    4036968  HIT:    2652747  MISS:    1384221
LLC LOAD      ACCESS:     256792  HIT:     180774  MISS:      76018
LLC RFO       ACCESS:     953633  HIT:     142640  MISS:     810993
LLC PREFETCH  ACCESS:    1714108  HIT:    1218965  MISS:     495143
LLC WRITEBACK ACCESS:    1112435  HIT:    1110368  MISS:       2067
LLC PREFETCH  REQUESTED:          0  ISSUED:          0  USEFUL:      27754  USELESS:     465637
LLC AVERAGE MISS LATENCY: 286.079 cycles
LLC

SHEET
LLC-total_access : 4036968
LLC-total_hit : 2652747
LLC-total_miss : 1384221
LLC-load_access : 256792
LLC-load_hit : 180774
LLC-load_miss : 76018
LLC-rfo_access : 953633
LLC-rfo_hit : 142640
LLC-rfo_miss : 810993
LLC-prefetch_access : 1714108
LLC-prefetch_hit : 1218965
LLC-prefetch_miss : 495143
LLC-writeback_access : 1112435
LLC-writeback_hit : 1110368
LLC-writeback_miss : 2067
LLC-prefetch_requested : 0
LLC-prefetch_issued : 0
LLC-prefetch_useful : 27754
LLC-prefetch_useless : 465637
LLC-Avg_miss_latency : 286.079
LLC-Morteza_fill_l2_prefetches : 884992

Major fault: 0 Minor fault: 22289



Printing Logs
statHeadFound: 499303
statHeadMissing: 890497
statStreamBufferHit: 12193919
statPrefetchEntryFound: 4843594
statCompactorMatch: 11191909
statStreamTrackerLookup: 13583719
statRecord: 2391810
statGetPointer: 1389800
statEnqueuePrefetch: 15119783
statPrefetchQueueIsFull: 369
StreamBufferHitRate: 0.897686
Regions' size: 1073
next_region_correct: 2028212
next_region_wrong: 362507
next_region_correct_prediction: 0.848369
statStreamBufferLookups: 978027768
statL1iLookups: 120958264
statCompactorLookups: 489013884
morteza: start

SHEET
mana_table_access_counter : 7235755
hobp_table_access_counter : 19970363
sab_access_counter : 17037513
srq_access_counter : 14993593

morteza: end
CPU 0 L1D next line prefetcher final stats

DRAM Statistics
 CHANNEL 0
 RQ ROW_BUFFER_HIT:     400345  ROW_BUFFER_MISS:     981536
 DBUS_CONGESTED:    1418257
 WQ ROW_BUFFER_HIT:     274799  ROW_BUFFER_MISS:     621269  FULL:          0

 AVG_CONGESTED_CYCLE: 6

CPU 0 Branch Prediction Accuracy: 99.8303% MPKI: 0.27836 Average ROB Occupancy at Mispredict: 221.543

Branch types
NOT_BRANCH: 41798547 83.5971%
BRANCH_DIRECT_JUMP: 445215 0.89043%
BRANCH_INDIRECT: 50481 0.100962%
BRANCH_CONDITIONAL: 5868246 11.7365%
BRANCH_DIRECT_CALL: 758228 1.51646%
BRANCH_INDIRECT_CALL: 160494 0.320988%
BRANCH_RETURN: 918718 1.83744%
BRANCH_OTHER: 0 0%

