Initialize SIGNATURE TABLE
ST_SET: 1
ST_WAY: 256
ST_TAG_BIT: 16
ST_TAG_MASK: ffff

Initialize PATTERN TABLE
PT_SET: 512
PT_WAY: 4
SIG_DELTA_BIT: 7
C_SIG_BIT: 4
C_DELTA_BIT: 4

Initialize PREFETCH FILTER
FILTER_SET: 1024
MANA initialize 
tds: 2 tdm: 2
size MANA SINGLE: 15.5 KB
size MANA NULTIPLE: 0 KB
size HOBPT: 0.703125 KB
size SRQ: 0.14502 KB
size SABs: 0.290039 KB
size prefetch queue: 0.453125 KB
total: 17.0913 KB

*** ChampSim Multicore Out-of-Order Simulator ***

Warmup Instructions: 50000000
Simulation Instructions: 50000000
Number of CPUs: 1
LLC sets: 2048
LLC ways: 16
Off-chip DRAM Size: 4096 MB Channels: 1 Width: 64-bit Data Rate: 3200 MT/s

CPU 0 runs /home/mbaradaran/ChampSim/dpc3_traces/server_001.champsimtrace.xz
CPU 0 L1D next line prefetcher
Heartbeat CPU 0 instructions: 10000002 cycles: 3156091 heartbeat IPC: 3.16848 cumulative IPC: 3.16848 (Simulation time: 0 hr 1 min 32 sec) 
Heartbeat CPU 0 instructions: 20000000 cycles: 6371956 heartbeat IPC: 3.10958 cumulative IPC: 3.13875 (Simulation time: 0 hr 3 min 15 sec) 
Heartbeat CPU 0 instructions: 30000003 cycles: 9559925 heartbeat IPC: 3.13679 cumulative IPC: 3.1381 (Simulation time: 0 hr 4 min 52 sec) 
Heartbeat CPU 0 instructions: 40000002 cycles: 12768965 heartbeat IPC: 3.1162 cumulative IPC: 3.1326 (Simulation time: 0 hr 6 min 38 sec) 
Heartbeat CPU 0 instructions: 50000003 cycles: 15989435 heartbeat IPC: 3.10514 cumulative IPC: 3.12706 (Simulation time: 0 hr 8 min 23 sec) 

Warmup complete CPU 0 instructions: 50000003 cycles: 15989435 (Simulation time: 0 hr 8 min 23 sec) 

Heartbeat CPU 0 instructions: 60000000 cycles: 23241633 heartbeat IPC: 1.37889 cumulative IPC: 1.37889 (Simulation time: 0 hr 9 min 58 sec) 
Heartbeat CPU 0 instructions: 70000001 cycles: 30161462 heartbeat IPC: 1.44512 cumulative IPC: 1.41123 (Simulation time: 0 hr 11 min 35 sec) 
Heartbeat CPU 0 instructions: 80000002 cycles: 37110789 heartbeat IPC: 1.43899 cumulative IPC: 1.42036 (Simulation time: 0 hr 13 min 11 sec) 
Heartbeat CPU 0 instructions: 90000002 cycles: 44399894 heartbeat IPC: 1.37191 cumulative IPC: 1.40793 (Simulation time: 0 hr 14 min 45 sec) 
Heartbeat CPU 0 instructions: 100000003 cycles: 51247134 heartbeat IPC: 1.46044 cumulative IPC: 1.41813 (Simulation time: 0 hr 16 min 22 sec) 
Finished CPU 0 instructions: 50000000 cycles: 35257699 cumulative IPC: 1.41813 (Simulation time: 0 hr 16 min 22 sec) 

ChampSim completed all CPUs

Region of Interest Statistics

CPU 0 cumulative IPC: 1.41813 instructions: 50000000 cycles: 35257699

SHEET
IPC : 1.41813

L1D TOTAL     ACCESS:   17670346  HIT:   17159173  MISS:     511173
L1D LOAD      ACCESS:    6470314  HIT:    6265804  MISS:     204510
L1D RFO       ACCESS:    5055287  HIT:    4972673  MISS:      82614
L1D PREFETCH  ACCESS:    6144745  HIT:    5920696  MISS:     224049
L1D WRITEBACK ACCESS:          0  HIT:          0  MISS:          0
L1D PREFETCH  REQUESTED:    6499400  ISSUED:    6321219  USEFUL:     132243  USELESS:      91930
L1D AVERAGE MISS LATENCY: 95.4503 cycles
L1D

SHEET
L1D-total_access : 17670346
L1D-total_hit : 17159173
L1D-total_miss : 511173
L1D-load_access : 6470314
L1D-load_hit : 6265804
L1D-load_miss : 204510
L1D-rfo_access : 5055287
L1D-rfo_hit : 4972673
L1D-rfo_miss : 82614
L1D-prefetch_access : 6144745
L1D-prefetch_hit : 5920696
L1D-prefetch_miss : 224049
L1D-writeback_access : 0
L1D-writeback_hit : 0
L1D-writeback_miss : 0
L1D-prefetch_requested : 6499400
L1D-prefetch_issued : 6321219
L1D-prefetch_useful : 132243
L1D-prefetch_useless : 91930
L1D-Avg_miss_latency : 95.4503
L1D-Morteza_fill_l2_prefetches : 0

L1I TOTAL     ACCESS:   14843556  HIT:   14072422  MISS:     771134
L1I LOAD      ACCESS:    8225886  HIT:    8107219  MISS:     118667
L1I RFO       ACCESS:          0  HIT:          0  MISS:          0
L1I PREFETCH  ACCESS:    6617670  HIT:    5965203  MISS:     652467
L1I WRITEBACK ACCESS:          0  HIT:          0  MISS:          0
L1I PREFETCH  REQUESTED:    7257421  ISSUED:    6855589  USEFUL:     442424  USELESS:     210201
L1I AVERAGE MISS LATENCY: 33.3587 cycles
L1I

SHEET
L1I-total_access : 14843556
L1I-total_hit : 14072422
L1I-total_miss : 771134
L1I-load_access : 8225886
L1I-load_hit : 8107219
L1I-load_miss : 118667
L1I-rfo_access : 0
L1I-rfo_hit : 0
L1I-rfo_miss : 0
L1I-prefetch_access : 6617670
L1I-prefetch_hit : 5965203
L1I-prefetch_miss : 652467
L1I-writeback_access : 0
L1I-writeback_hit : 0
L1I-writeback_miss : 0
L1I-prefetch_requested : 7257421
L1I-prefetch_issued : 6855589
L1I-prefetch_useful : 442424
L1I-prefetch_useless : 210201
L1I-Avg_miss_latency : 33.3587
L1I-Morteza_fill_l2_prefetches : 0

L2C TOTAL     ACCESS:    1912265  HIT:    1423690  MISS:     488575
L2C LOAD      ACCESS:     256588  HIT:     140813  MISS:     115775
L2C RFO       ACCESS:      80924  HIT:      10006  MISS:      70918
L2C PREFETCH  ACCESS:    1366890  HIT:    1065726  MISS:     301164
L2C WRITEBACK ACCESS:     207863  HIT:     207145  MISS:        718
L2C PREFETCH  REQUESTED:    1912720  ISSUED:    1908793  USEFUL:      26989  USELESS:     273388
L2C AVERAGE MISS LATENCY: 121.827 cycles
L2C

SHEET
L2C-total_access : 1912265
L2C-total_hit : 1423690
L2C-total_miss : 488575
L2C-load_access : 256588
L2C-load_hit : 140813
L2C-load_miss : 115775
L2C-rfo_access : 80924
L2C-rfo_hit : 10006
L2C-rfo_miss : 70918
L2C-prefetch_access : 1366890
L2C-prefetch_hit : 1065726
L2C-prefetch_miss : 301164
L2C-writeback_access : 207863
L2C-writeback_hit : 207145
L2C-writeback_miss : 718
L2C-prefetch_requested : 1912720
L2C-prefetch_issued : 1908793
L2C-prefetch_useful : 26989
L2C-prefetch_useless : 273388
L2C-Avg_miss_latency : 121.827
L2C-Morteza_fill_l2_prefetches : 416959

LLC TOTAL     ACCESS:    1216262  HIT:     886468  MISS:     329794
LLC LOAD      ACCESS:     115551  HIT:      79815  MISS:      35736
LLC RFO       ACCESS:      70916  HIT:       7045  MISS:      63871
LLC PREFETCH  ACCESS:     861243  HIT:     631281  MISS:     229962
LLC WRITEBACK ACCESS:     168552  HIT:     168327  MISS:        225
LLC PREFETCH  REQUESTED:          0  ISSUED:          0  USEFUL:      30254  USELESS:     195268
LLC AVERAGE MISS LATENCY: 226.748 cycles
LLC

SHEET
LLC-total_access : 1216262
LLC-total_hit : 886468
LLC-total_miss : 329794
LLC-load_access : 115551
LLC-load_hit : 79815
LLC-load_miss : 35736
LLC-rfo_access : 70916
LLC-rfo_hit : 7045
LLC-rfo_miss : 63871
LLC-prefetch_access : 861243
LLC-prefetch_hit : 631281
LLC-prefetch_miss : 229962
LLC-writeback_access : 168552
LLC-writeback_hit : 168327
LLC-writeback_miss : 225
LLC-prefetch_requested : 0
LLC-prefetch_issued : 0
LLC-prefetch_useful : 30254
LLC-prefetch_useless : 195268
LLC-Avg_miss_latency : 226.748
LLC-Morteza_fill_l2_prefetches : 438491

Major fault: 0 Minor fault: 16697



Printing Logs
statHeadFound: 400240
statHeadMissing: 424040
statStreamBufferHit: 9579205
statPrefetchEntryFound: 3578281
statCompactorMatch: 9214438
statStreamTrackerLookup: 10403485
statRecord: 1189047
statGetPointer: 824280
statEnqueuePrefetch: 13703849
statPrefetchQueueIsFull: 24156
StreamBufferHitRate: 0.920769
Regions' size: 2993
next_region_correct: 954876
next_region_wrong: 231160
next_region_correct_prediction: 0.805099
statStreamBufferLookups: 749050920
statL1iLookups: 109630792
statCompactorLookups: 374525460
morteza: start

SHEET
mana_table_access_counter : 4791466
hobp_table_access_counter : 11655751
sab_access_counter : 13157486
srq_access_counter : 10083074

morteza: end
CPU 0 L1D next line prefetcher final stats

DRAM Statistics
 CHANNEL 0
 RQ ROW_BUFFER_HIT:     100850  ROW_BUFFER_MISS:     228678
 DBUS_CONGESTED:     228521
 WQ ROW_BUFFER_HIT:      35053  ROW_BUFFER_MISS:     123839  FULL:          0

 AVG_CONGESTED_CYCLE: 6

CPU 0 Branch Prediction Accuracy: 99.5889% MPKI: 0.70108 Average ROB Occupancy at Mispredict: 107.97

Branch types
NOT_BRANCH: 41473577 82.9472%
BRANCH_DIRECT_JUMP: 347941 0.695882%
BRANCH_INDIRECT: 148212 0.296424%
BRANCH_CONDITIONAL: 6817276 13.6346%
BRANCH_DIRECT_CALL: 570724 1.14145%
BRANCH_INDIRECT_CALL: 25133 0.050266%
BRANCH_RETURN: 617123 1.23425%
BRANCH_OTHER: 0 0%

