Initialize SIGNATURE TABLE
ST_SET: 1
ST_WAY: 256
ST_TAG_BIT: 16
ST_TAG_MASK: ffff

Initialize PATTERN TABLE
PT_SET: 512
PT_WAY: 4
SIG_DELTA_BIT: 7
C_SIG_BIT: 4
C_DELTA_BIT: 4

Initialize PREFETCH FILTER
FILTER_SET: 1024
MANA initialize 
tds: 2 tdm: 2
size MANA SINGLE: 15.5 KB
size MANA NULTIPLE: 0 KB
size HOBPT: 0.703125 KB
size SRQ: 0.14502 KB
size SABs: 0.290039 KB
size prefetch queue: 0.453125 KB
total: 17.0913 KB

*** ChampSim Multicore Out-of-Order Simulator ***

Warmup Instructions: 50000000
Simulation Instructions: 50000000
Number of CPUs: 1
LLC sets: 2048
LLC ways: 16
Off-chip DRAM Size: 4096 MB Channels: 1 Width: 64-bit Data Rate: 3200 MT/s

CPU 0 runs /home/mbaradaran/ChampSim/dpc3_traces/server_017.champsimtrace.xz
CPU 0 L1D next line prefetcher
Heartbeat CPU 0 instructions: 10000001 cycles: 3623947 heartbeat IPC: 2.75942 cumulative IPC: 2.75942 (Simulation time: 0 hr 1 min 56 sec) 
Heartbeat CPU 0 instructions: 20000000 cycles: 7245693 heartbeat IPC: 2.7611 cumulative IPC: 2.76026 (Simulation time: 0 hr 3 min 54 sec) 
Heartbeat CPU 0 instructions: 30000002 cycles: 10874147 heartbeat IPC: 2.756 cumulative IPC: 2.75884 (Simulation time: 0 hr 5 min 54 sec) 
Heartbeat CPU 0 instructions: 40000000 cycles: 14497769 heartbeat IPC: 2.75967 cumulative IPC: 2.75905 (Simulation time: 0 hr 7 min 49 sec) 
Heartbeat CPU 0 instructions: 50000001 cycles: 18132359 heartbeat IPC: 2.75134 cumulative IPC: 2.7575 (Simulation time: 0 hr 9 min 39 sec) 

Warmup complete CPU 0 instructions: 50000001 cycles: 18132359 (Simulation time: 0 hr 9 min 39 sec) 

Heartbeat CPU 0 instructions: 60000002 cycles: 35788041 heartbeat IPC: 0.56639 cumulative IPC: 0.56639 (Simulation time: 0 hr 12 min 8 sec) 
Heartbeat CPU 0 instructions: 70000002 cycles: 53678752 heartbeat IPC: 0.558949 cumulative IPC: 0.562645 (Simulation time: 0 hr 14 min 50 sec) 
Heartbeat CPU 0 instructions: 80000000 cycles: 71264430 heartbeat IPC: 0.568644 cumulative IPC: 0.564631 (Simulation time: 0 hr 17 min 15 sec) 
Heartbeat CPU 0 instructions: 90000002 cycles: 94673835 heartbeat IPC: 0.427179 cumulative IPC: 0.522592 (Simulation time: 0 hr 19 min 54 sec) 
Heartbeat CPU 0 instructions: 100000003 cycles: 114778423 heartbeat IPC: 0.497399 cumulative IPC: 0.517352 (Simulation time: 0 hr 22 min 28 sec) 
Finished CPU 0 instructions: 50000002 cycles: 96646064 cumulative IPC: 0.517352 (Simulation time: 0 hr 22 min 28 sec) 

ChampSim completed all CPUs

Region of Interest Statistics

CPU 0 cumulative IPC: 0.517352 instructions: 50000002 cycles: 96646064

SHEET
IPC : 0.517352

L1D TOTAL     ACCESS:   18405824  HIT:   16240248  MISS:    2165576
L1D LOAD      ACCESS:    7037908  HIT:    6289078  MISS:     748830
L1D RFO       ACCESS:    5522750  HIT:    4663605  MISS:     859145
L1D PREFETCH  ACCESS:    5845166  HIT:    5287565  MISS:     557601
L1D WRITEBACK ACCESS:          0  HIT:          0  MISS:          0
L1D PREFETCH  REQUESTED:    7075831  ISSUED:    6885037  USEFUL:     195197  USELESS:     362465
L1D AVERAGE MISS LATENCY: 173.863 cycles
L1D

SHEET
L1D-total_access : 18405824
L1D-total_hit : 16240248
L1D-total_miss : 2165576
L1D-load_access : 7037908
L1D-load_hit : 6289078
L1D-load_miss : 748830
L1D-rfo_access : 5522750
L1D-rfo_hit : 4663605
L1D-rfo_miss : 859145
L1D-prefetch_access : 5845166
L1D-prefetch_hit : 5287565
L1D-prefetch_miss : 557601
L1D-writeback_access : 0
L1D-writeback_hit : 0
L1D-writeback_miss : 0
L1D-prefetch_requested : 7075831
L1D-prefetch_issued : 6885037
L1D-prefetch_useful : 195197
L1D-prefetch_useless : 362465
L1D-Avg_miss_latency : 173.863
L1D-Morteza_fill_l2_prefetches : 0

L1I TOTAL     ACCESS:   16370011  HIT:   14116340  MISS:    2253671
L1I LOAD      ACCESS:    9832426  HIT:    9612585  MISS:     219841
L1I RFO       ACCESS:          0  HIT:          0  MISS:          0
L1I PREFETCH  ACCESS:    6537585  HIT:    4503755  MISS:    2033830
L1I WRITEBACK ACCESS:          0  HIT:          0  MISS:          0
L1I PREFETCH  REQUESTED:    6853249  ISSUED:    6788556  USEFUL:    1870454  USELESS:     163404
L1I AVERAGE MISS LATENCY: 17.9515 cycles
L1I

SHEET
L1I-total_access : 16370011
L1I-total_hit : 14116340
L1I-total_miss : 2253671
L1I-load_access : 9832426
L1I-load_hit : 9612585
L1I-load_miss : 219841
L1I-rfo_access : 0
L1I-rfo_hit : 0
L1I-rfo_miss : 0
L1I-prefetch_access : 6537585
L1I-prefetch_hit : 4503755
L1I-prefetch_miss : 2033830
L1I-writeback_access : 0
L1I-writeback_hit : 0
L1I-writeback_miss : 0
L1I-prefetch_requested : 6853249
L1I-prefetch_issued : 6788556
L1I-prefetch_useful : 1870454
L1I-prefetch_useless : 163404
L1I-Avg_miss_latency : 17.9515
L1I-Morteza_fill_l2_prefetches : 0

L2C TOTAL     ACCESS:    6438645  HIT:    4593622  MISS:    1845023
L2C LOAD      ACCESS:     692892  HIT:     357161  MISS:     335731
L2C RFO       ACCESS:     858704  HIT:      17406  MISS:     841298
L2C PREFETCH  ACCESS:    3764173  HIT:    3097994  MISS:     666179
L2C WRITEBACK ACCESS:    1122876  HIT:    1121061  MISS:       1815
L2C PREFETCH  REQUESTED:    3837023  ISSUED:    3833201  USEFUL:      25745  USELESS:     640989
L2C AVERAGE MISS LATENCY: 208.144 cycles
L2C

SHEET
L2C-total_access : 6438645
L2C-total_hit : 4593622
L2C-total_miss : 1845023
L2C-load_access : 692892
L2C-load_hit : 357161
L2C-load_miss : 335731
L2C-rfo_access : 858704
L2C-rfo_hit : 17406
L2C-rfo_miss : 841298
L2C-prefetch_access : 3764173
L2C-prefetch_hit : 3097994
L2C-prefetch_miss : 666179
L2C-writeback_access : 1122876
L2C-writeback_hit : 1121061
L2C-writeback_miss : 1815
L2C-prefetch_requested : 3837023
L2C-prefetch_issued : 3833201
L2C-prefetch_useful : 25745
L2C-prefetch_useless : 640989
L2C-Avg_miss_latency : 208.144
L2C-Morteza_fill_l2_prefetches : 903336

LLC TOTAL     ACCESS:    4007645  HIT:    2500249  MISS:    1507396
LLC LOAD      ACCESS:     335615  HIT:     178207  MISS:     157408
LLC RFO       ACCESS:     841296  HIT:     123576  MISS:     717720
LLC PREFETCH  ACCESS:    1769510  HIT:    1139127  MISS:     630383
LLC WRITEBACK ACCESS:    1061224  HIT:    1059339  MISS:       1885
LLC PREFETCH  REQUESTED:          0  ISSUED:          0  USEFUL:      48695  USELESS:     580676
LLC AVERAGE MISS LATENCY: 261.841 cycles
LLC

SHEET
LLC-total_access : 4007645
LLC-total_hit : 2500249
LLC-total_miss : 1507396
LLC-load_access : 335615
LLC-load_hit : 178207
LLC-load_miss : 157408
LLC-rfo_access : 841296
LLC-rfo_hit : 123576
LLC-rfo_miss : 717720
LLC-prefetch_access : 1769510
LLC-prefetch_hit : 1139127
LLC-prefetch_miss : 630383
LLC-writeback_access : 1061224
LLC-writeback_hit : 1059339
LLC-writeback_miss : 1885
LLC-prefetch_requested : 0
LLC-prefetch_issued : 0
LLC-prefetch_useful : 48695
LLC-prefetch_useless : 580676
LLC-Avg_miss_latency : 261.841
LLC-Morteza_fill_l2_prefetches : 836587

Major fault: 0 Minor fault: 24694



Printing Logs
statHeadFound: 467262
statHeadMissing: 495486
statStreamBufferHit: 12271695
statPrefetchEntryFound: 4523581
statCompactorMatch: 11004179
statStreamTrackerLookup: 13234443
statRecord: 2230264
statGetPointer: 962748
statEnqueuePrefetch: 14143055
statPrefetchQueueIsFull: 462
StreamBufferHitRate: 0.927254
Regions' size: 1167
next_region_correct: 1891855
next_region_wrong: 337224
next_region_correct_prediction: 0.848716
statStreamBufferLookups: 952879896
statL1iLookups: 113144440
statCompactorLookups: 476439948
morteza: start

SHEET
mana_table_access_counter : 6754289
hobp_table_access_counter : 17296051
sab_access_counter : 16795276
srq_access_counter : 14379744

morteza: end
CPU 0 L1D next line prefetcher final stats

DRAM Statistics
 CHANNEL 0
 RQ ROW_BUFFER_HIT:     372942  ROW_BUFFER_MISS:    1132427
 DBUS_CONGESTED:    1444437
 WQ ROW_BUFFER_HIT:     262124  ROW_BUFFER_MISS:     614028  FULL:          0

 AVG_CONGESTED_CYCLE: 6

CPU 0 Branch Prediction Accuracy: 99.2833% MPKI: 1.20568 Average ROB Occupancy at Mispredict: 181.103

Branch types
NOT_BRANCH: 41588350 83.1767%
BRANCH_DIRECT_JUMP: 464501 0.929002%
BRANCH_INDIRECT: 45704 0.091408%
BRANCH_CONDITIONAL: 6147408 12.2948%
BRANCH_DIRECT_CALL: 675450 1.3509%
BRANCH_INDIRECT_CALL: 201532 0.403064%
BRANCH_RETURN: 876985 1.75397%
BRANCH_OTHER: 0 0%

