Initialize SIGNATURE TABLE
ST_SET: 1
ST_WAY: 256
ST_TAG_BIT: 16
ST_TAG_MASK: ffff

Initialize PATTERN TABLE
PT_SET: 512
PT_WAY: 4
SIG_DELTA_BIT: 7
C_SIG_BIT: 4
C_DELTA_BIT: 4

Initialize PREFETCH FILTER
FILTER_SET: 1024
MANA initialize 
tds: 2 tdm: 2
size MANA SINGLE: 15.5 KB
size MANA NULTIPLE: 0 KB
size HOBPT: 0.703125 KB
size SRQ: 0.14502 KB
size SABs: 0.290039 KB
size prefetch queue: 0.453125 KB
total: 17.0913 KB

*** ChampSim Multicore Out-of-Order Simulator ***

Warmup Instructions: 50000000
Simulation Instructions: 50000000
Number of CPUs: 1
LLC sets: 2048
LLC ways: 16
Off-chip DRAM Size: 4096 MB Channels: 1 Width: 64-bit Data Rate: 3200 MT/s

CPU 0 runs /home/mbaradaran/ChampSim/dpc3_traces/spec_gcc_001.champsimtrace.xz
CPU 0 L1D next line prefetcher
Heartbeat CPU 0 instructions: 10000003 cycles: 3219643 heartbeat IPC: 3.10594 cumulative IPC: 3.10594 (Simulation time: 0 hr 1 min 38 sec) 
Heartbeat CPU 0 instructions: 20000002 cycles: 6465009 heartbeat IPC: 3.08132 cumulative IPC: 3.09358 (Simulation time: 0 hr 2 min 52 sec) 
Heartbeat CPU 0 instructions: 30000000 cycles: 9666539 heartbeat IPC: 3.12351 cumulative IPC: 3.10349 (Simulation time: 0 hr 3 min 59 sec) 
Heartbeat CPU 0 instructions: 40000001 cycles: 12909364 heartbeat IPC: 3.08373 cumulative IPC: 3.09853 (Simulation time: 0 hr 5 min 5 sec) 
Heartbeat CPU 0 instructions: 50000001 cycles: 16150293 heartbeat IPC: 3.08554 cumulative IPC: 3.09592 (Simulation time: 0 hr 6 min 12 sec) 

Warmup complete CPU 0 instructions: 50000001 cycles: 16150293 (Simulation time: 0 hr 6 min 12 sec) 

Heartbeat CPU 0 instructions: 60000000 cycles: 23988585 heartbeat IPC: 1.27579 cumulative IPC: 1.27579 (Simulation time: 0 hr 7 min 12 sec) 
Heartbeat CPU 0 instructions: 70000002 cycles: 31884030 heartbeat IPC: 1.26655 cumulative IPC: 1.27115 (Simulation time: 0 hr 8 min 14 sec) 
Heartbeat CPU 0 instructions: 80000000 cycles: 39428728 heartbeat IPC: 1.32543 cumulative IPC: 1.28875 (Simulation time: 0 hr 9 min 12 sec) 
Heartbeat CPU 0 instructions: 90000001 cycles: 47293904 heartbeat IPC: 1.27143 cumulative IPC: 1.28437 (Simulation time: 0 hr 10 min 12 sec) 
Heartbeat CPU 0 instructions: 100000000 cycles: 55487981 heartbeat IPC: 1.22039 cumulative IPC: 1.27105 (Simulation time: 0 hr 11 min 14 sec) 
Finished CPU 0 instructions: 50000000 cycles: 39337692 cumulative IPC: 1.27105 (Simulation time: 0 hr 11 min 14 sec) 

ChampSim completed all CPUs

Region of Interest Statistics

CPU 0 cumulative IPC: 1.27105 instructions: 50000000 cycles: 39337692

SHEET
IPC : 1.27105

L1D TOTAL     ACCESS:   19335804  HIT:   18230657  MISS:    1105147
L1D LOAD      ACCESS:    7238082  HIT:    6758829  MISS:     479253
L1D RFO       ACCESS:    5117480  HIT:    5037889  MISS:      79591
L1D PREFETCH  ACCESS:    6980242  HIT:    6433939  MISS:     546303
L1D WRITEBACK ACCESS:          0  HIT:          0  MISS:          0
L1D PREFETCH  REQUESTED:    7281779  ISSUED:    7183900  USEFUL:     276063  USELESS:     270253
L1D AVERAGE MISS LATENCY: 25.4692 cycles
L1D

SHEET
L1D-total_access : 19335804
L1D-total_hit : 18230657
L1D-total_miss : 1105147
L1D-load_access : 7238082
L1D-load_hit : 6758829
L1D-load_miss : 479253
L1D-rfo_access : 5117480
L1D-rfo_hit : 5037889
L1D-rfo_miss : 79591
L1D-prefetch_access : 6980242
L1D-prefetch_hit : 6433939
L1D-prefetch_miss : 546303
L1D-writeback_access : 0
L1D-writeback_hit : 0
L1D-writeback_miss : 0
L1D-prefetch_requested : 7281779
L1D-prefetch_issued : 7183900
L1D-prefetch_useful : 276063
L1D-prefetch_useless : 270253
L1D-Avg_miss_latency : 25.4692
L1D-Morteza_fill_l2_prefetches : 0

L1I TOTAL     ACCESS:   16995579  HIT:   16594149  MISS:     401430
L1I LOAD      ACCESS:    9270842  HIT:    9181945  MISS:      88897
L1I RFO       ACCESS:          0  HIT:          0  MISS:          0
L1I PREFETCH  ACCESS:    7724737  HIT:    7412204  MISS:     312533
L1I WRITEBACK ACCESS:          0  HIT:          0  MISS:          0
L1I PREFETCH  REQUESTED:    8381924  ISSUED:    8120223  USEFUL:     188884  USELESS:     123678
L1I AVERAGE MISS LATENCY: 22.3635 cycles
L1I

SHEET
L1I-total_access : 16995579
L1I-total_hit : 16594149
L1I-total_miss : 401430
L1I-load_access : 9270842
L1I-load_hit : 9181945
L1I-load_miss : 88897
L1I-rfo_access : 0
L1I-rfo_hit : 0
L1I-rfo_miss : 0
L1I-prefetch_access : 7724737
L1I-prefetch_hit : 7412204
L1I-prefetch_miss : 312533
L1I-writeback_access : 0
L1I-writeback_hit : 0
L1I-writeback_miss : 0
L1I-prefetch_requested : 8381924
L1I-prefetch_issued : 8120223
L1I-prefetch_useful : 188884
L1I-prefetch_useless : 123678
L1I-Avg_miss_latency : 22.3635
L1I-Morteza_fill_l2_prefetches : 0

L2C TOTAL     ACCESS:    2571416  HIT:    2316086  MISS:     255330
L2C LOAD      ACCESS:     527667  HIT:     442095  MISS:      85572
L2C RFO       ACCESS:      74995  HIT:      36733  MISS:      38262
L2C PREFETCH  ACCESS:    1714999  HIT:    1584006  MISS:     130993
L2C WRITEBACK ACCESS:     253755  HIT:     253252  MISS:        503
L2C PREFETCH  REQUESTED:    1763872  ISSUED:    1763647  USEFUL:      31450  USELESS:      98788
L2C AVERAGE MISS LATENCY: 62.1617 cycles
L2C

SHEET
L2C-total_access : 2571416
L2C-total_hit : 2316086
L2C-total_miss : 255330
L2C-load_access : 527667
L2C-load_hit : 442095
L2C-load_miss : 85572
L2C-rfo_access : 74995
L2C-rfo_hit : 36733
L2C-rfo_miss : 38262
L2C-prefetch_access : 1714999
L2C-prefetch_hit : 1584006
L2C-prefetch_miss : 130993
L2C-writeback_access : 253755
L2C-writeback_hit : 253252
L2C-writeback_miss : 503
L2C-prefetch_requested : 1763872
L2C-prefetch_issued : 1763647
L2C-prefetch_useful : 31450
L2C-prefetch_useless : 98788
L2C-Avg_miss_latency : 62.1617
L2C-Morteza_fill_l2_prefetches : 818597

LLC TOTAL     ACCESS:     651460  HIT:     579983  MISS:      71477
LLC LOAD      ACCESS:      85359  HIT:      73990  MISS:      11369
LLC RFO       ACCESS:      38262  HIT:      17717  MISS:      20545
LLC PREFETCH  ACCESS:     436986  HIT:     398375  MISS:      38611
LLC WRITEBACK ACCESS:      90853  HIT:      89901  MISS:        952
LLC PREFETCH  REQUESTED:          0  ISSUED:          0  USEFUL:      13708  USELESS:      24119
LLC AVERAGE MISS LATENCY: 186.04 cycles
LLC

SHEET
LLC-total_access : 651460
LLC-total_hit : 579983
LLC-total_miss : 71477
LLC-load_access : 85359
LLC-load_hit : 73990
LLC-load_miss : 11369
LLC-rfo_access : 38262
LLC-rfo_hit : 17717
LLC-rfo_miss : 20545
LLC-prefetch_access : 436986
LLC-prefetch_hit : 398375
LLC-prefetch_miss : 38611
LLC-writeback_access : 90853
LLC-writeback_hit : 89901
LLC-writeback_miss : 952
LLC-prefetch_requested : 0
LLC-prefetch_issued : 0
LLC-prefetch_useful : 13708
LLC-prefetch_useless : 24119
LLC-Avg_miss_latency : 186.04
LLC-Morteza_fill_l2_prefetches : 284469

Major fault: 0 Minor fault: 6865



Printing Logs
statHeadFound: 708426
statHeadMissing: 1562314
statStreamBufferHit: 12950185
statPrefetchEntryFound: 5150351
statCompactorMatch: 13805089
statStreamTrackerLookup: 15220925
statRecord: 1415836
statGetPointer: 2270740
statEnqueuePrefetch: 16647304
statPrefetchQueueIsFull: 81505
StreamBufferHitRate: 0.850815
Regions' size: 11622
next_region_correct: 905861
next_region_wrong: 498335
next_region_correct_prediction: 0.64511
statStreamBufferLookups: 1095906600
statL1iLookups: 133178432
statCompactorLookups: 547953300
morteza: start

SHEET
mana_table_access_counter : 6647674
hobp_table_access_counter : 19978132
sab_access_counter : 18100536
srq_access_counter : 13734017

morteza: end
CPU 0 L1D next line prefetcher final stats

DRAM Statistics
 CHANNEL 0
 RQ ROW_BUFFER_HIT:      19602  ROW_BUFFER_MISS:      50922
 DBUS_CONGESTED:      37670
 WQ ROW_BUFFER_HIT:       4540  ROW_BUFFER_MISS:      22779  FULL:          0

 AVG_CONGESTED_CYCLE: 6

CPU 0 Branch Prediction Accuracy: 95.8872% MPKI: 9.67286 Average ROB Occupancy at Mispredict: 66.5647

Branch types
NOT_BRANCH: 38240102 76.4802%
BRANCH_DIRECT_JUMP: 653296 1.30659%
BRANCH_INDIRECT: 37098 0.074196%
BRANCH_CONDITIONAL: 8897819 17.7956%
BRANCH_DIRECT_CALL: 992620 1.98524%
BRANCH_INDIRECT_CALL: 93046 0.186092%
BRANCH_RETURN: 1085674 2.17135%
BRANCH_OTHER: 0 0%

