Initialize SIGNATURE TABLE
ST_SET: 1
ST_WAY: 256
ST_TAG_BIT: 16
ST_TAG_MASK: ffff

Initialize PATTERN TABLE
PT_SET: 512
PT_WAY: 4
SIG_DELTA_BIT: 7
C_SIG_BIT: 4
C_DELTA_BIT: 4

Initialize PREFETCH FILTER
FILTER_SET: 1024
MANA initialize 
tds: 2 tdm: 2
size MANA SINGLE: 15.5 KB
size MANA NULTIPLE: 0 KB
size HOBPT: 0.703125 KB
size SRQ: 0.14502 KB
size SABs: 0.290039 KB
size prefetch queue: 0.453125 KB
total: 17.0913 KB

*** ChampSim Multicore Out-of-Order Simulator ***

Warmup Instructions: 50000000
Simulation Instructions: 50000000
Number of CPUs: 1
LLC sets: 2048
LLC ways: 16
Off-chip DRAM Size: 4096 MB Channels: 1 Width: 64-bit Data Rate: 3200 MT/s

CPU 0 runs /home/mbaradaran/ChampSim/dpc3_traces/spec_gcc_003.champsimtrace.xz
CPU 0 L1D next line prefetcher
Heartbeat CPU 0 instructions: 10000001 cycles: 3483997 heartbeat IPC: 2.87027 cumulative IPC: 2.87027 (Simulation time: 0 hr 1 min 32 sec) 
Heartbeat CPU 0 instructions: 20000000 cycles: 6958794 heartbeat IPC: 2.87787 cumulative IPC: 2.87406 (Simulation time: 0 hr 2 min 35 sec) 
Heartbeat CPU 0 instructions: 30000002 cycles: 10401724 heartbeat IPC: 2.9045 cumulative IPC: 2.88414 (Simulation time: 0 hr 3 min 34 sec) 
Heartbeat CPU 0 instructions: 40000000 cycles: 13869180 heartbeat IPC: 2.88396 cumulative IPC: 2.88409 (Simulation time: 0 hr 4 min 34 sec) 
Heartbeat CPU 0 instructions: 50000001 cycles: 17179238 heartbeat IPC: 3.0211 cumulative IPC: 2.91049 (Simulation time: 0 hr 5 min 32 sec) 

Warmup complete CPU 0 instructions: 50000001 cycles: 17179238 (Simulation time: 0 hr 5 min 32 sec) 

Heartbeat CPU 0 instructions: 60000000 cycles: 57790138 heartbeat IPC: 0.246239 cumulative IPC: 0.246239 (Simulation time: 0 hr 7 min 57 sec) 
Heartbeat CPU 0 instructions: 70000000 cycles: 101424096 heartbeat IPC: 0.229179 cumulative IPC: 0.237403 (Simulation time: 0 hr 10 min 36 sec) 
Heartbeat CPU 0 instructions: 80000003 cycles: 145820763 heartbeat IPC: 0.225242 cumulative IPC: 0.233206 (Simulation time: 0 hr 13 min 22 sec) 
Heartbeat CPU 0 instructions: 90000002 cycles: 183281130 heartbeat IPC: 0.266949 cumulative IPC: 0.240816 (Simulation time: 0 hr 15 min 47 sec) 
Heartbeat CPU 0 instructions: 100000001 cycles: 230123766 heartbeat IPC: 0.213481 cumulative IPC: 0.234803 (Simulation time: 0 hr 18 min 40 sec) 
Finished CPU 0 instructions: 50000000 cycles: 212944528 cumulative IPC: 0.234803 (Simulation time: 0 hr 18 min 40 sec) 

ChampSim completed all CPUs

Region of Interest Statistics

CPU 0 cumulative IPC: 0.234803 instructions: 50000000 cycles: 212944528

SHEET
IPC : 0.234803

L1D TOTAL     ACCESS:   16994709  HIT:   11270326  MISS:    5724383
L1D LOAD      ACCESS:    4631883  HIT:    4249311  MISS:     382572
L1D RFO       ACCESS:    8217509  HIT:    3165857  MISS:    5051652
L1D PREFETCH  ACCESS:    4145317  HIT:    3855158  MISS:     290159
L1D WRITEBACK ACCESS:          0  HIT:          0  MISS:          0
L1D PREFETCH  REQUESTED:    4650521  ISSUED:    4591655  USEFUL:     152656  USELESS:     137683
L1D AVERAGE MISS LATENCY: 505.705 cycles
L1D

SHEET
L1D-total_access : 16994709
L1D-total_hit : 11270326
L1D-total_miss : 5724383
L1D-load_access : 4631883
L1D-load_hit : 4249311
L1D-load_miss : 382572
L1D-rfo_access : 8217509
L1D-rfo_hit : 3165857
L1D-rfo_miss : 5051652
L1D-prefetch_access : 4145317
L1D-prefetch_hit : 3855158
L1D-prefetch_miss : 290159
L1D-writeback_access : 0
L1D-writeback_hit : 0
L1D-writeback_miss : 0
L1D-prefetch_requested : 4650521
L1D-prefetch_issued : 4591655
L1D-prefetch_useful : 152656
L1D-prefetch_useless : 137683
L1D-Avg_miss_latency : 505.705
L1D-Morteza_fill_l2_prefetches : 0

L1I TOTAL     ACCESS:   16491867  HIT:   15378020  MISS:    1113847
L1I LOAD      ACCESS:   11263160  HIT:   11007699  MISS:     255461
L1I RFO       ACCESS:          0  HIT:          0  MISS:          0
L1I PREFETCH  ACCESS:    5228707  HIT:    4370321  MISS:     858386
L1I WRITEBACK ACCESS:          0  HIT:          0  MISS:          0
L1I PREFETCH  REQUESTED:    6447627  ISSUED:    5674899  USEFUL:     530154  USELESS:     328214
L1I AVERAGE MISS LATENCY: 56.6335 cycles
L1I

SHEET
L1I-total_access : 16491867
L1I-total_hit : 15378020
L1I-total_miss : 1113847
L1I-load_access : 11263160
L1I-load_hit : 11007699
L1I-load_miss : 255461
L1I-rfo_access : 0
L1I-rfo_hit : 0
L1I-rfo_miss : 0
L1I-prefetch_access : 5228707
L1I-prefetch_hit : 4370321
L1I-prefetch_miss : 858386
L1I-writeback_access : 0
L1I-writeback_hit : 0
L1I-writeback_miss : 0
L1I-prefetch_requested : 6447627
L1I-prefetch_issued : 5674899
L1I-prefetch_useful : 530154
L1I-prefetch_useless : 328214
L1I-Avg_miss_latency : 56.6335
L1I-Morteza_fill_l2_prefetches : 0

L2C TOTAL     ACCESS:   12318863  HIT:    6269593  MISS:    6049270
L2C LOAD      ACCESS:     401180  HIT:     149026  MISS:     252154
L2C RFO       ACCESS:    5049875  HIT:       6485  MISS:    5043390
L2C PREFETCH  ACCESS:    1709898  HIT:     956418  MISS:     753480
L2C WRITEBACK ACCESS:    5157910  HIT:    5157664  MISS:        246
L2C PREFETCH  REQUESTED:    2110199  ISSUED:    2110052  USEFUL:      56497  USELESS:     693872
L2C AVERAGE MISS LATENCY: 475.659 cycles
L2C

SHEET
L2C-total_access : 12318863
L2C-total_hit : 6269593
L2C-total_miss : 6049270
L2C-load_access : 401180
L2C-load_hit : 149026
L2C-load_miss : 252154
L2C-rfo_access : 5049875
L2C-rfo_hit : 6485
L2C-rfo_miss : 5043390
L2C-prefetch_access : 1709898
L2C-prefetch_hit : 956418
L2C-prefetch_miss : 753480
L2C-writeback_access : 5157910
L2C-writeback_hit : 5157664
L2C-writeback_miss : 246
L2C-prefetch_requested : 2110199
L2C-prefetch_issued : 2110052
L2C-prefetch_useful : 56497
L2C-prefetch_useless : 693872
L2C-Avg_miss_latency : 475.659
L2C-Morteza_fill_l2_prefetches : 282636

LLC TOTAL     ACCESS:   11970835  HIT:    7235070  MISS:    4735765
LLC LOAD      ACCESS:     252110  HIT:     186128  MISS:      65982
LLC RFO       ACCESS:    5043390  HIT:     611178  MISS:    4432212
LLC PREFETCH  ACCESS:    1541397  HIT:    1303826  MISS:     237571
LLC WRITEBACK ACCESS:    5133938  HIT:    5133938  MISS:          0
LLC PREFETCH  REQUESTED:          0  ISSUED:          0  USEFUL:      20298  USELESS:     217008
LLC AVERAGE MISS LATENCY: 576.601 cycles
LLC

SHEET
LLC-total_access : 11970835
LLC-total_hit : 7235070
LLC-total_miss : 4735765
LLC-load_access : 252110
LLC-load_hit : 186128
LLC-load_miss : 65982
LLC-rfo_access : 5043390
LLC-rfo_hit : 611178
LLC-rfo_miss : 4432212
LLC-prefetch_access : 1541397
LLC-prefetch_hit : 1303826
LLC-prefetch_miss : 237571
LLC-writeback_access : 5133938
LLC-writeback_hit : 5133938
LLC-writeback_miss : 0
LLC-prefetch_requested : 0
LLC-prefetch_issued : 0
LLC-prefetch_useful : 20298
LLC-prefetch_useless : 217008
LLC-Avg_miss_latency : 576.601
LLC-Morteza_fill_l2_prefetches : 787509

Major fault: 0 Minor fault: 2817



Printing Logs
statHeadFound: 497411
statHeadMissing: 2097936
statStreamBufferHit: 7376054
statPrefetchEntryFound: 3444994
statCompactorMatch: 9007566
statStreamTrackerLookup: 9971401
statRecord: 963835
statGetPointer: 2595347
statEnqueuePrefetch: 10783637
statPrefetchQueueIsFull: 45170
StreamBufferHitRate: 0.739721
Regions' size: 1436
next_region_correct: 563087
next_region_wrong: 399294
next_region_correct_prediction: 0.585098
statStreamBufferLookups: 717940872
statL1iLookups: 86269096
statCompactorLookups: 358970436
morteza: start

SHEET
mana_table_access_counter : 4453981
hobp_table_access_counter : 17726859
sab_access_counter : 10821048
srq_access_counter : 9337312

morteza: end
CPU 0 L1D next line prefetcher final stats

DRAM Statistics
 CHANNEL 0
 RQ ROW_BUFFER_HIT:    1428367  ROW_BUFFER_MISS:    3307350
 DBUS_CONGESTED:    8245351
 WQ ROW_BUFFER_HIT:    1195584  ROW_BUFFER_MISS:    3265658  FULL:          0

 AVG_CONGESTED_CYCLE: 6

CPU 0 Branch Prediction Accuracy: 99.665% MPKI: 0.78342 Average ROB Occupancy at Mispredict: 105.793

Branch types
NOT_BRANCH: 38305862 76.6117%
BRANCH_DIRECT_JUMP: 384282 0.768564%
BRANCH_INDIRECT: 71949 0.143898%
BRANCH_CONDITIONAL: 9879826 19.7597%
BRANCH_DIRECT_CALL: 650586 1.30117%
BRANCH_INDIRECT_CALL: 28456 0.056912%
BRANCH_RETURN: 679046 1.35809%
BRANCH_OTHER: 0 0%

