Initialize SIGNATURE TABLE
ST_SET: 1
ST_WAY: 256
ST_TAG_BIT: 16
ST_TAG_MASK: ffff

Initialize PATTERN TABLE
PT_SET: 512
PT_WAY: 4
SIG_DELTA_BIT: 7
C_SIG_BIT: 4
C_DELTA_BIT: 4

Initialize PREFETCH FILTER
FILTER_SET: 1024
MANA initialize 
tds: 2 tdm: 2
size MANA SINGLE: 15.5 KB
size MANA NULTIPLE: 0 KB
size HOBPT: 0.703125 KB
size SRQ: 0.14502 KB
size SABs: 0.290039 KB
size prefetch queue: 0.453125 KB
total: 17.0913 KB

*** ChampSim Multicore Out-of-Order Simulator ***

Warmup Instructions: 50000000
Simulation Instructions: 50000000
Number of CPUs: 1
LLC sets: 2048
LLC ways: 16
Off-chip DRAM Size: 4096 MB Channels: 1 Width: 64-bit Data Rate: 3200 MT/s

CPU 0 runs /home/mbaradaran/ChampSim/dpc3_traces/spec_perlbench_001.champsimtrace.xz
CPU 0 L1D next line prefetcher
Heartbeat CPU 0 instructions: 10000000 cycles: 3275979 heartbeat IPC: 3.05252 cumulative IPC: 3.05252 (Simulation time: 0 hr 1 min 30 sec) 
Heartbeat CPU 0 instructions: 20000000 cycles: 6540888 heartbeat IPC: 3.06287 cumulative IPC: 3.05769 (Simulation time: 0 hr 2 min 42 sec) 
Heartbeat CPU 0 instructions: 30000002 cycles: 9857873 heartbeat IPC: 3.01479 cumulative IPC: 3.04325 (Simulation time: 0 hr 3 min 53 sec) 
Heartbeat CPU 0 instructions: 40000002 cycles: 13113447 heartbeat IPC: 3.07166 cumulative IPC: 3.0503 (Simulation time: 0 hr 5 min 0 sec) 
Heartbeat CPU 0 instructions: 50000001 cycles: 16387181 heartbeat IPC: 3.05462 cumulative IPC: 3.05117 (Simulation time: 0 hr 6 min 6 sec) 

Warmup complete CPU 0 instructions: 50000001 cycles: 16387181 (Simulation time: 0 hr 6 min 6 sec) 

Heartbeat CPU 0 instructions: 60000001 cycles: 24652413 heartbeat IPC: 1.20989 cumulative IPC: 1.20989 (Simulation time: 0 hr 7 min 9 sec) 
Heartbeat CPU 0 instructions: 70000003 cycles: 32837950 heartbeat IPC: 1.22167 cumulative IPC: 1.21575 (Simulation time: 0 hr 8 min 15 sec) 
Heartbeat CPU 0 instructions: 80000000 cycles: 41250806 heartbeat IPC: 1.18866 cumulative IPC: 1.20658 (Simulation time: 0 hr 9 min 20 sec) 
Heartbeat CPU 0 instructions: 90000000 cycles: 46960784 heartbeat IPC: 1.75132 cumulative IPC: 1.30832 (Simulation time: 0 hr 10 min 10 sec) 
Heartbeat CPU 0 instructions: 100000002 cycles: 52816316 heartbeat IPC: 1.70779 cumulative IPC: 1.37253 (Simulation time: 0 hr 11 min 0 sec) 
Finished CPU 0 instructions: 50000001 cycles: 36429135 cumulative IPC: 1.37253 (Simulation time: 0 hr 11 min 0 sec) 

ChampSim completed all CPUs

Region of Interest Statistics

CPU 0 cumulative IPC: 1.37253 instructions: 50000001 cycles: 36429135

SHEET
IPC : 1.37253

L1D TOTAL     ACCESS:   20707841  HIT:   20292742  MISS:     415099
L1D LOAD      ACCESS:    7183079  HIT:    6969428  MISS:     213651
L1D RFO       ACCESS:    6542637  HIT:    6524124  MISS:      18513
L1D PREFETCH  ACCESS:    6982125  HIT:    6799190  MISS:     182935
L1D WRITEBACK ACCESS:          0  HIT:          0  MISS:          0
L1D PREFETCH  REQUESTED:    7198820  ISSUED:    7082639  USEFUL:      55267  USELESS:     127663
L1D AVERAGE MISS LATENCY: 57.7075 cycles
L1D

SHEET
L1D-total_access : 20707841
L1D-total_hit : 20292742
L1D-total_miss : 415099
L1D-load_access : 7183079
L1D-load_hit : 6969428
L1D-load_miss : 213651
L1D-rfo_access : 6542637
L1D-rfo_hit : 6524124
L1D-rfo_miss : 18513
L1D-prefetch_access : 6982125
L1D-prefetch_hit : 6799190
L1D-prefetch_miss : 182935
L1D-writeback_access : 0
L1D-writeback_hit : 0
L1D-writeback_miss : 0
L1D-prefetch_requested : 7198820
L1D-prefetch_issued : 7082639
L1D-prefetch_useful : 55267
L1D-prefetch_useless : 127663
L1D-Avg_miss_latency : 57.7075
L1D-Morteza_fill_l2_prefetches : 0

L1I TOTAL     ACCESS:   17965518  HIT:   17485615  MISS:     479903
L1I LOAD      ACCESS:    9136388  HIT:    9025010  MISS:     111378
L1I RFO       ACCESS:          0  HIT:          0  MISS:          0
L1I PREFETCH  ACCESS:    8829130  HIT:    8460605  MISS:     368525
L1I WRITEBACK ACCESS:          0  HIT:          0  MISS:          0
L1I PREFETCH  REQUESTED:    9358559  ISSUED:    9184105  USEFUL:     246481  USELESS:     122051
L1I AVERAGE MISS LATENCY: 17.7112 cycles
L1I

SHEET
L1I-total_access : 17965518
L1I-total_hit : 17485615
L1I-total_miss : 479903
L1I-load_access : 9136388
L1I-load_hit : 9025010
L1I-load_miss : 111378
L1I-rfo_access : 0
L1I-rfo_hit : 0
L1I-rfo_miss : 0
L1I-prefetch_access : 8829130
L1I-prefetch_hit : 8460605
L1I-prefetch_miss : 368525
L1I-writeback_access : 0
L1I-writeback_hit : 0
L1I-writeback_miss : 0
L1I-prefetch_requested : 9358559
L1I-prefetch_issued : 9184105
L1I-prefetch_useful : 246481
L1I-prefetch_useless : 122051
L1I-Avg_miss_latency : 17.7112
L1I-Morteza_fill_l2_prefetches : 0

L2C TOTAL     ACCESS:    1254574  HIT:    1088324  MISS:     166250
L2C LOAD      ACCESS:     299343  HIT:     218459  MISS:      80884
L2C RFO       ACCESS:      18271  HIT:      12895  MISS:       5376
L2C PREFETCH  ACCESS:     858004  HIT:     778359  MISS:      79645
L2C WRITEBACK ACCESS:      78956  HIT:      78611  MISS:        345
L2C PREFETCH  REQUESTED:     830649  ISSUED:     830613  USEFUL:       6305  USELESS:      73241
L2C AVERAGE MISS LATENCY: 119.846 cycles
L2C

SHEET
L2C-total_access : 1254574
L2C-total_hit : 1088324
L2C-total_miss : 166250
L2C-load_access : 299343
L2C-load_hit : 218459
L2C-load_miss : 80884
L2C-rfo_access : 18271
L2C-rfo_hit : 12895
L2C-rfo_miss : 5376
L2C-prefetch_access : 858004
L2C-prefetch_hit : 778359
L2C-prefetch_miss : 79645
L2C-writeback_access : 78956
L2C-writeback_hit : 78611
L2C-writeback_miss : 345
L2C-prefetch_requested : 830649
L2C-prefetch_issued : 830613
L2C-prefetch_useful : 6305
L2C-prefetch_useless : 73241
L2C-Avg_miss_latency : 119.846
L2C-Morteza_fill_l2_prefetches : 283787

LLC TOTAL     ACCESS:     395395  HIT:     253536  MISS:     141859
LLC LOAD      ACCESS:      80884  HIT:      32579  MISS:      48305
LLC RFO       ACCESS:       5376  HIT:       2315  MISS:       3061
LLC PREFETCH  ACCESS:     283951  HIT:     193949  MISS:      90002
LLC WRITEBACK ACCESS:      25184  HIT:      24693  MISS:        491
LLC PREFETCH  REQUESTED:          0  ISSUED:          0  USEFUL:      15055  USELESS:      75012
LLC AVERAGE MISS LATENCY: 160.081 cycles
LLC

SHEET
LLC-total_access : 395395
LLC-total_hit : 253536
LLC-total_miss : 141859
LLC-load_access : 80884
LLC-load_hit : 32579
LLC-load_miss : 48305
LLC-rfo_access : 5376
LLC-rfo_hit : 2315
LLC-rfo_miss : 3061
LLC-prefetch_access : 283951
LLC-prefetch_hit : 193949
LLC-prefetch_miss : 90002
LLC-writeback_access : 25184
LLC-writeback_hit : 24693
LLC-writeback_miss : 491
LLC-prefetch_requested : 0
LLC-prefetch_issued : 0
LLC-prefetch_useful : 15055
LLC-prefetch_useless : 75012
LLC-Avg_miss_latency : 160.081
LLC-Morteza_fill_l2_prefetches : 157502

Major fault: 0 Minor fault: 6364



Printing Logs
statHeadFound: 663556
statHeadMissing: 274799
statStreamBufferHit: 13349570
statPrefetchEntryFound: 6003381
statCompactorMatch: 12980005
statStreamTrackerLookup: 14287925
statRecord: 1307920
statGetPointer: 938355
statEnqueuePrefetch: 18550380
statPrefetchQueueIsFull: 28187
StreamBufferHitRate: 0.934325
Regions' size: 2381
next_region_correct: 916171
next_region_wrong: 389350
next_region_correct_prediction: 0.701767
statStreamBufferLookups: 1028730600
statL1iLookups: 148403040
statCompactorLookups: 514365300
morteza: start

SHEET
mana_table_access_counter : 7339470
hobp_table_access_counter : 15016614
sab_access_counter : 19352951
srq_access_counter : 12612604

morteza: end
CPU 0 L1D next line prefetcher final stats

DRAM Statistics
 CHANNEL 0
 RQ ROW_BUFFER_HIT:      32529  ROW_BUFFER_MISS:     108838
 DBUS_CONGESTED:      58844
 WQ ROW_BUFFER_HIT:       4192  ROW_BUFFER_MISS:      13118  FULL:          0

 AVG_CONGESTED_CYCLE: 4

CPU 0 Branch Prediction Accuracy: 98.7418% MPKI: 2.47758 Average ROB Occupancy at Mispredict: 77.7899

Branch types
NOT_BRANCH: 40154100 80.3082%
BRANCH_DIRECT_JUMP: 817094 1.63419%
BRANCH_INDIRECT: 303787 0.607574%
BRANCH_CONDITIONAL: 7492103 14.9842%
BRANCH_DIRECT_CALL: 471777 0.943554%
BRANCH_INDIRECT_CALL: 144546 0.289092%
BRANCH_RETURN: 616324 1.23265%
BRANCH_OTHER: 0 0%

