Initialize SIGNATURE TABLE
ST_SET: 1
ST_WAY: 256
ST_TAG_BIT: 16
ST_TAG_MASK: ffff

Initialize PATTERN TABLE
PT_SET: 512
PT_WAY: 4
SIG_DELTA_BIT: 7
C_SIG_BIT: 4
C_DELTA_BIT: 4

Initialize PREFETCH FILTER
FILTER_SET: 1024
MANA initialize 
tds: 2 tdm: 2
size MANA SINGLE: 15.5 KB
size MANA NULTIPLE: 0 KB
size HOBPT: 0.703125 KB
size SRQ: 0.14502 KB
size SABs: 0.290039 KB
size prefetch queue: 0.453125 KB
total: 17.0913 KB

*** ChampSim Multicore Out-of-Order Simulator ***

Warmup Instructions: 50000000
Simulation Instructions: 50000000
Number of CPUs: 1
LLC sets: 2048
LLC ways: 16
Off-chip DRAM Size: 4096 MB Channels: 1 Width: 64-bit Data Rate: 3200 MT/s

CPU 0 runs /home/mbaradaran/ChampSim/dpc3_traces/spec_gobmk_001.champsimtrace.xz
CPU 0 L1D next line prefetcher
Heartbeat CPU 0 instructions: 10000003 cycles: 3506715 heartbeat IPC: 2.85167 cumulative IPC: 2.85167 (Simulation time: 0 hr 1 min 25 sec) 
Heartbeat CPU 0 instructions: 20000002 cycles: 6987032 heartbeat IPC: 2.8733 cumulative IPC: 2.86245 (Simulation time: 0 hr 2 min 37 sec) 
Heartbeat CPU 0 instructions: 30000002 cycles: 10506387 heartbeat IPC: 2.84143 cumulative IPC: 2.85541 (Simulation time: 0 hr 3 min 38 sec) 
Heartbeat CPU 0 instructions: 40000001 cycles: 14025703 heartbeat IPC: 2.84146 cumulative IPC: 2.85191 (Simulation time: 0 hr 4 min 39 sec) 
Heartbeat CPU 0 instructions: 50000001 cycles: 17565856 heartbeat IPC: 2.82474 cumulative IPC: 2.84643 (Simulation time: 0 hr 5 min 41 sec) 

Warmup complete CPU 0 instructions: 50000001 cycles: 17565856 (Simulation time: 0 hr 5 min 41 sec) 

Heartbeat CPU 0 instructions: 60000000 cycles: 26421740 heartbeat IPC: 1.12919 cumulative IPC: 1.12919 (Simulation time: 0 hr 6 min 30 sec) 
Heartbeat CPU 0 instructions: 70000002 cycles: 34951495 heartbeat IPC: 1.17237 cumulative IPC: 1.15037 (Simulation time: 0 hr 7 min 19 sec) 
Heartbeat CPU 0 instructions: 80000003 cycles: 43882254 heartbeat IPC: 1.11973 cumulative IPC: 1.13997 (Simulation time: 0 hr 8 min 9 sec) 
Heartbeat CPU 0 instructions: 90000001 cycles: 52474283 heartbeat IPC: 1.16387 cumulative IPC: 1.14586 (Simulation time: 0 hr 8 min 59 sec) 
Heartbeat CPU 0 instructions: 100000003 cycles: 61401558 heartbeat IPC: 1.12016 cumulative IPC: 1.14062 (Simulation time: 0 hr 9 min 51 sec) 
Finished CPU 0 instructions: 50000002 cycles: 43835702 cumulative IPC: 1.14062 (Simulation time: 0 hr 9 min 51 sec) 

ChampSim completed all CPUs

Region of Interest Statistics

CPU 0 cumulative IPC: 1.14062 instructions: 50000002 cycles: 43835702

SHEET
IPC : 1.14062

L1D TOTAL     ACCESS:   18008456  HIT:   17628900  MISS:     379556
L1D LOAD      ACCESS:    7221842  HIT:    7086957  MISS:     134885
L1D RFO       ACCESS:    3703389  HIT:    3598855  MISS:     104534
L1D PREFETCH  ACCESS:    7083225  HIT:    6943088  MISS:     140137
L1D WRITEBACK ACCESS:          0  HIT:          0  MISS:          0
L1D PREFETCH  REQUESTED:    7227156  ISSUED:    7144380  USEFUL:      45425  USELESS:      94717
L1D AVERAGE MISS LATENCY: 33.7045 cycles
L1D

SHEET
L1D-total_access : 18008456
L1D-total_hit : 17628900
L1D-total_miss : 379556
L1D-load_access : 7221842
L1D-load_hit : 7086957
L1D-load_miss : 134885
L1D-rfo_access : 3703389
L1D-rfo_hit : 3598855
L1D-rfo_miss : 104534
L1D-prefetch_access : 7083225
L1D-prefetch_hit : 6943088
L1D-prefetch_miss : 140137
L1D-writeback_access : 0
L1D-writeback_hit : 0
L1D-writeback_miss : 0
L1D-prefetch_requested : 7227156
L1D-prefetch_issued : 7144380
L1D-prefetch_useful : 45425
L1D-prefetch_useless : 94717
L1D-Avg_miss_latency : 33.7045
L1D-Morteza_fill_l2_prefetches : 0

L1I TOTAL     ACCESS:   18347138  HIT:   17615698  MISS:     731440
L1I LOAD      ACCESS:    8936816  HIT:    8792335  MISS:     144481
L1I RFO       ACCESS:          0  HIT:          0  MISS:          0
L1I PREFETCH  ACCESS:    9410322  HIT:    8823363  MISS:     586959
L1I WRITEBACK ACCESS:          0  HIT:          0  MISS:          0
L1I PREFETCH  REQUESTED:   10871015  ISSUED:   10112562  USEFUL:     354753  USELESS:     232166
L1I AVERAGE MISS LATENCY: 15.0735 cycles
L1I

SHEET
L1I-total_access : 18347138
L1I-total_hit : 17615698
L1I-total_miss : 731440
L1I-load_access : 8936816
L1I-load_hit : 8792335
L1I-load_miss : 144481
L1I-rfo_access : 0
L1I-rfo_hit : 0
L1I-rfo_miss : 0
L1I-prefetch_access : 9410322
L1I-prefetch_hit : 8823363
L1I-prefetch_miss : 586959
L1I-writeback_access : 0
L1I-writeback_hit : 0
L1I-writeback_miss : 0
L1I-prefetch_requested : 10871015
L1I-prefetch_issued : 10112562
L1I-prefetch_useful : 354753
L1I-prefetch_useless : 232166
L1I-Avg_miss_latency : 15.0735
L1I-Morteza_fill_l2_prefetches : 0

L2C TOTAL     ACCESS:    1705859  HIT:    1581597  MISS:     124262
L2C LOAD      ACCESS:     236323  HIT:     200952  MISS:      35371
L2C RFO       ACCESS:     104226  HIT:      70089  MISS:      34137
L2C PREFETCH  ACCESS:    1226010  HIT:    1171351  MISS:      54659
L2C WRITEBACK ACCESS:     139300  HIT:     139205  MISS:         95
L2C PREFETCH  REQUESTED:    1016365  ISSUED:    1016240  USEFUL:       4716  USELESS:      50203
L2C AVERAGE MISS LATENCY: 65.8201 cycles
L2C

SHEET
L2C-total_access : 1705859
L2C-total_hit : 1581597
L2C-total_miss : 124262
L2C-load_access : 236323
L2C-load_hit : 200952
L2C-load_miss : 35371
L2C-rfo_access : 104226
L2C-rfo_hit : 70089
L2C-rfo_miss : 34137
L2C-prefetch_access : 1226010
L2C-prefetch_hit : 1171351
L2C-prefetch_miss : 54659
L2C-writeback_access : 139300
L2C-writeback_hit : 139205
L2C-writeback_miss : 95
L2C-prefetch_requested : 1016365
L2C-prefetch_issued : 1016240
L2C-prefetch_useful : 4716
L2C-prefetch_useless : 50203
L2C-Avg_miss_latency : 65.8201
L2C-Morteza_fill_l2_prefetches : 463187

LLC TOTAL     ACCESS:     296961  HIT:     260249  MISS:      36712
LLC LOAD      ACCESS:      35369  HIT:      27073  MISS:       8296
LLC RFO       ACCESS:      34137  HIT:      27187  MISS:       6950
LLC PREFETCH  ACCESS:     182475  HIT:     161296  MISS:      21179
LLC WRITEBACK ACCESS:      44980  HIT:      44693  MISS:        287
LLC PREFETCH  REQUESTED:          0  ISSUED:          0  USEFUL:       1376  USELESS:      18193
LLC AVERAGE MISS LATENCY: 178.519 cycles
LLC

SHEET
LLC-total_access : 296961
LLC-total_hit : 260249
LLC-total_miss : 36712
LLC-load_access : 35369
LLC-load_hit : 27073
LLC-load_miss : 8296
LLC-rfo_access : 34137
LLC-rfo_hit : 27187
LLC-rfo_miss : 6950
LLC-prefetch_access : 182475
LLC-prefetch_hit : 161296
LLC-prefetch_miss : 21179
LLC-writeback_access : 44980
LLC-writeback_hit : 44693
LLC-writeback_miss : 287
LLC-prefetch_requested : 0
LLC-prefetch_issued : 0
LLC-prefetch_useful : 1376
LLC-prefetch_useless : 18193
LLC-Avg_miss_latency : 178.519
LLC-Morteza_fill_l2_prefetches : 117675

Major fault: 0 Minor fault: 4156



Printing Logs
statHeadFound: 769237
statHeadMissing: 350046
statStreamBufferHit: 11705516
statPrefetchEntryFound: 4802586
statCompactorMatch: 11795572
statStreamTrackerLookup: 12824799
statRecord: 1029227
statGetPointer: 1119283
statEnqueuePrefetch: 18859492
statPrefetchQueueIsFull: 162871
StreamBufferHitRate: 0.912725
Regions' size: 3096
next_region_correct: 543792
next_region_wrong: 482321
next_region_correct_prediction: 0.529953
statStreamBufferLookups: 923385528
statL1iLookups: 150875936
statCompactorLookups: 461692764
morteza: start

SHEET
mana_table_access_counter : 5994666
hobp_table_access_counter : 13559456
sab_access_counter : 16508102
srq_access_counter : 12501795

morteza: end
CPU 0 L1D next line prefetcher final stats

DRAM Statistics
 CHANNEL 0
 RQ ROW_BUFFER_HIT:       4769  ROW_BUFFER_MISS:      31655
 DBUS_CONGESTED:      21155
 WQ ROW_BUFFER_HIT:       1551  ROW_BUFFER_MISS:      14806  FULL:          0

 AVG_CONGESTED_CYCLE: 4

CPU 0 Branch Prediction Accuracy: 94.7729% MPKI: 9.72684 Average ROB Occupancy at Mispredict: 53.377

Branch types
NOT_BRANCH: 40695383 81.3908%
BRANCH_DIRECT_JUMP: 422107 0.844214%
BRANCH_INDIRECT: 65 0.00013%
BRANCH_CONDITIONAL: 8105005 16.21%
BRANCH_DIRECT_CALL: 374913 0.749826%
BRANCH_INDIRECT_CALL: 13657 0.027314%
BRANCH_RETURN: 388556 0.777112%
BRANCH_OTHER: 0 0%

