Initialize SIGNATURE TABLE
ST_SET: 1
ST_WAY: 256
ST_TAG_BIT: 16
ST_TAG_MASK: ffff

Initialize PATTERN TABLE
PT_SET: 512
PT_WAY: 4
SIG_DELTA_BIT: 7
C_SIG_BIT: 4
C_DELTA_BIT: 4

Initialize PREFETCH FILTER
FILTER_SET: 1024
MANA initialize 
tds: 2 tdm: 4
size MANA SINGLE: 74 KB
size MANA NULTIPLE: 43 KB
size HOBPT: 5 KB
size SRQ: 0.14502 KB
size SABs: 0.290039 KB
size prefetch queue: 0.453125 KB
total: 122.888 KB

*** ChampSim Multicore Out-of-Order Simulator ***

Warmup Instructions: 50000000
Simulation Instructions: 50000000
Number of CPUs: 1
LLC sets: 2048
LLC ways: 16
Off-chip DRAM Size: 4096 MB Channels: 1 Width: 64-bit Data Rate: 3200 MT/s

CPU 0 runs /home/mbaradaran/ChampSim/dpc3_traces/client_007.champsimtrace.xz
CPU 0 L1D next line prefetcher
Heartbeat CPU 0 instructions: 10000001 cycles: 3643547 heartbeat IPC: 2.74458 cumulative IPC: 2.74458 (Simulation time: 0 hr 1 min 47 sec) 
Heartbeat CPU 0 instructions: 20000003 cycles: 7036628 heartbeat IPC: 2.94717 cumulative IPC: 2.84227 (Simulation time: 0 hr 3 min 36 sec) 
Heartbeat CPU 0 instructions: 30000000 cycles: 10909827 heartbeat IPC: 2.58184 cumulative IPC: 2.74981 (Simulation time: 0 hr 5 min 34 sec) 
Heartbeat CPU 0 instructions: 40000003 cycles: 15070465 heartbeat IPC: 2.40348 cumulative IPC: 2.6542 (Simulation time: 0 hr 7 min 37 sec) 
Heartbeat CPU 0 instructions: 50000002 cycles: 18476666 heartbeat IPC: 2.93582 cumulative IPC: 2.70612 (Simulation time: 0 hr 9 min 16 sec) 

Warmup complete CPU 0 instructions: 50000002 cycles: 18476666 (Simulation time: 0 hr 9 min 16 sec) 

Heartbeat CPU 0 instructions: 60000003 cycles: 25556417 heartbeat IPC: 1.41248 cumulative IPC: 1.41248 (Simulation time: 0 hr 11 min 7 sec) 
Heartbeat CPU 0 instructions: 70000003 cycles: 34541232 heartbeat IPC: 1.11299 cumulative IPC: 1.24498 (Simulation time: 0 hr 13 min 5 sec) 
Heartbeat CPU 0 instructions: 80000002 cycles: 39933429 heartbeat IPC: 1.85453 cumulative IPC: 1.39816 (Simulation time: 0 hr 14 min 25 sec) 
Heartbeat CPU 0 instructions: 90000002 cycles: 47776152 heartbeat IPC: 1.27507 cumulative IPC: 1.36521 (Simulation time: 0 hr 16 min 5 sec) 
Heartbeat CPU 0 instructions: 100000002 cycles: 56860117 heartbeat IPC: 1.10084 cumulative IPC: 1.30264 (Simulation time: 0 hr 17 min 45 sec) 
Finished CPU 0 instructions: 50000000 cycles: 38383451 cumulative IPC: 1.30264 (Simulation time: 0 hr 17 min 45 sec) 

ChampSim completed all CPUs

Region of Interest Statistics

CPU 0 cumulative IPC: 1.30264 instructions: 50000000 cycles: 38383451

SHEET
IPC : 1.30264

L1D TOTAL     ACCESS:   21360150  HIT:   20190540  MISS:    1169610
L1D LOAD      ACCESS:    8448129  HIT:    7909644  MISS:     538485
L1D RFO       ACCESS:    4872831  HIT:    4781671  MISS:      91160
L1D PREFETCH  ACCESS:    8039190  HIT:    7499225  MISS:     539965
L1D WRITEBACK ACCESS:          0  HIT:          0  MISS:          0
L1D PREFETCH  REQUESTED:    8501985  ISSUED:    8260476  USEFUL:     159131  USELESS:     380850
L1D AVERAGE MISS LATENCY: 34.7701 cycles
L1D

SHEET
L1D-total_access : 21360150
L1D-total_hit : 20190540
L1D-total_miss : 1169610
L1D-load_access : 8448129
L1D-load_hit : 7909644
L1D-load_miss : 538485
L1D-rfo_access : 4872831
L1D-rfo_hit : 4781671
L1D-rfo_miss : 91160
L1D-prefetch_access : 8039190
L1D-prefetch_hit : 7499225
L1D-prefetch_miss : 539965
L1D-writeback_access : 0
L1D-writeback_hit : 0
L1D-writeback_miss : 0
L1D-prefetch_requested : 8501985
L1D-prefetch_issued : 8260476
L1D-prefetch_useful : 159131
L1D-prefetch_useless : 380850
L1D-Avg_miss_latency : 34.7701

L1I TOTAL     ACCESS:   14954494  HIT:   13341139  MISS:    1613355
L1I LOAD      ACCESS:    9090916  HIT:    8873157  MISS:     217759
L1I RFO       ACCESS:          0  HIT:          0  MISS:          0
L1I PREFETCH  ACCESS:    5863578  HIT:    4467982  MISS:    1395596
L1I WRITEBACK ACCESS:          0  HIT:          0  MISS:          0
L1I PREFETCH  REQUESTED:    6533797  ISSUED:    6425305  USEFUL:     957848  USELESS:     437720
L1I AVERAGE MISS LATENCY: 15.6708 cycles
L1I

SHEET
L1I-total_access : 14954494
L1I-total_hit : 13341139
L1I-total_miss : 1613355
L1I-load_access : 9090916
L1I-load_hit : 8873157
L1I-load_miss : 217759
L1I-rfo_access : 0
L1I-rfo_hit : 0
L1I-rfo_miss : 0
L1I-prefetch_access : 5863578
L1I-prefetch_hit : 4467982
L1I-prefetch_miss : 1395596
L1I-writeback_access : 0
L1I-writeback_hit : 0
L1I-writeback_miss : 0
L1I-prefetch_requested : 6533797
L1I-prefetch_issued : 6425305
L1I-prefetch_useful : 957848
L1I-prefetch_useless : 437720
L1I-Avg_miss_latency : 15.6708

L2C TOTAL     ACCESS:    3909722  HIT:    3699962  MISS:     209760
L2C LOAD      ACCESS:     687071  HIT:     616897  MISS:      70174
L2C RFO       ACCESS:      89507  HIT:      47869  MISS:      41638
L2C PREFETCH  ACCESS:    2805390  HIT:    2707692  MISS:      97698
L2C WRITEBACK ACCESS:     327754  HIT:     327504  MISS:        250
L2C PREFETCH  REQUESTED:    3065497  ISSUED:    3060931  USEFUL:      10196  USELESS:      86857
L2C AVERAGE MISS LATENCY: 125.919 cycles
L2C

SHEET
L2C-total_access : 3909722
L2C-total_hit : 3699962
L2C-total_miss : 209760
L2C-load_access : 687071
L2C-load_hit : 616897
L2C-load_miss : 70174
L2C-rfo_access : 89507
L2C-rfo_hit : 47869
L2C-rfo_miss : 41638
L2C-prefetch_access : 2805390
L2C-prefetch_hit : 2707692
L2C-prefetch_miss : 97698
L2C-writeback_access : 327754
L2C-writeback_hit : 327504
L2C-writeback_miss : 250
L2C-prefetch_requested : 3065497
L2C-prefetch_issued : 3060931
L2C-prefetch_useful : 10196
L2C-prefetch_useless : 86857
L2C-Avg_miss_latency : 125.919

LLC TOTAL     ACCESS:    1128150  HIT:     959108  MISS:     169042
LLC LOAD      ACCESS:      70089  HIT:      34424  MISS:      35665
LLC RFO       ACCESS:      41637  HIT:       7072  MISS:      34565
LLC PREFETCH  ACCESS:     941879  HIT:     843379  MISS:      98500
LLC WRITEBACK ACCESS:      74545  HIT:      74233  MISS:        312
LLC PREFETCH  REQUESTED:          0  ISSUED:          0  USEFUL:      17808  USELESS:      81545
LLC AVERAGE MISS LATENCY: 182.293 cycles
LLC

SHEET
LLC-total_access : 1128150
LLC-total_hit : 959108
LLC-total_miss : 169042
LLC-load_access : 70089
LLC-load_hit : 34424
LLC-load_miss : 35665
LLC-rfo_access : 41637
LLC-rfo_hit : 7072
LLC-rfo_miss : 34565
LLC-prefetch_access : 941879
LLC-prefetch_hit : 843379
LLC-prefetch_miss : 98500
LLC-writeback_access : 74545
LLC-writeback_hit : 74233
LLC-writeback_miss : 312
LLC-prefetch_requested : 0
LLC-prefetch_issued : 0
LLC-prefetch_useful : 17808
LLC-prefetch_useless : 81545
LLC-Avg_miss_latency : 182.293

Major fault: 0 Minor fault: 4469



Printing Logs
statHeadFound: 624754
statHeadMissing: 1418489
statStreamBufferHit: 11622668
statPrefetchEntryFound: 4378790
statCompactorMatch: 12590925
statStreamTrackerLookup: 13665911
statRecord: 1074986
statGetPointer: 2043243
statEnqueuePrefetch: 12983428
statPrefetchQueueIsFull: 23120
StreamBufferHitRate: 0.850486
Regions' size: 5010
next_region_correct: 676544
next_region_wrong: 393414
next_region_correct_prediction: 0.632309
statStreamBufferLookups: 983945592
statL1iLookups: 103867424
statCompactorLookups: 491972796
morteza: start

SHEET
mana_table_access_counter : 1747693
mana_table_multiple_access_counter : 4361865
hobp_table_access_counter : 25060958
sab_access_counter : 16001458
srq_access_counter : 12355357

morteza: end
CPU 0 L1D next line prefetcher final stats

DRAM Statistics
 CHANNEL 0
 RQ ROW_BUFFER_HIT:      36024  ROW_BUFFER_MISS:     132693
 DBUS_CONGESTED:      92678
 WQ ROW_BUFFER_HIT:      13141  ROW_BUFFER_MISS:      44730  FULL:          0

 AVG_CONGESTED_CYCLE: 5

CPU 0 Branch Prediction Accuracy: 98.8607% MPKI: 1.8623 Average ROB Occupancy at Mispredict: 108.5

Branch types
NOT_BRANCH: 41826773 83.6535%
BRANCH_DIRECT_JUMP: 735330 1.47066%
BRANCH_INDIRECT: 269194 0.538388%
BRANCH_CONDITIONAL: 5957947 11.9159%
BRANCH_DIRECT_CALL: 368758 0.737516%
BRANCH_INDIRECT_CALL: 226975 0.45395%
BRANCH_RETURN: 614696 1.22939%
BRANCH_OTHER: 0 0%

