Initialize SIGNATURE TABLE
ST_SET: 1
ST_WAY: 256
ST_TAG_BIT: 16
ST_TAG_MASK: ffff

Initialize PATTERN TABLE
PT_SET: 512
PT_WAY: 4
SIG_DELTA_BIT: 7
C_SIG_BIT: 4
C_DELTA_BIT: 4

Initialize PREFETCH FILTER
FILTER_SET: 1024
MANA initialize 
tds: 2 tdm: 4
size MANA SINGLE: 74 KB
size MANA NULTIPLE: 43 KB
size HOBPT: 5 KB
size SRQ: 0.14502 KB
size SABs: 0.290039 KB
size prefetch queue: 0.453125 KB
total: 122.888 KB

*** ChampSim Multicore Out-of-Order Simulator ***

Warmup Instructions: 50000000
Simulation Instructions: 50000000
Number of CPUs: 1
LLC sets: 2048
LLC ways: 16
Off-chip DRAM Size: 4096 MB Channels: 1 Width: 64-bit Data Rate: 3200 MT/s

CPU 0 runs /home/mbaradaran/ChampSim/dpc3_traces/client_006.champsimtrace.xz
CPU 0 L1D next line prefetcher
Heartbeat CPU 0 instructions: 10000003 cycles: 4267764 heartbeat IPC: 2.34315 cumulative IPC: 2.34315 (Simulation time: 0 hr 1 min 41 sec) 
Heartbeat CPU 0 instructions: 20000000 cycles: 8308606 heartbeat IPC: 2.47473 cumulative IPC: 2.40714 (Simulation time: 0 hr 3 min 36 sec) 
Heartbeat CPU 0 instructions: 30000003 cycles: 11373297 heartbeat IPC: 3.26297 cumulative IPC: 2.63776 (Simulation time: 0 hr 5 min 7 sec) 
Heartbeat CPU 0 instructions: 40000000 cycles: 14718774 heartbeat IPC: 2.98911 cumulative IPC: 2.71762 (Simulation time: 0 hr 6 min 51 sec) 
Heartbeat CPU 0 instructions: 50000003 cycles: 18824020 heartbeat IPC: 2.43591 cumulative IPC: 2.65618 (Simulation time: 0 hr 8 min 48 sec) 

Warmup complete CPU 0 instructions: 50000003 cycles: 18824020 (Simulation time: 0 hr 8 min 48 sec) 

Heartbeat CPU 0 instructions: 60000001 cycles: 26948801 heartbeat IPC: 1.2308 cumulative IPC: 1.2308 (Simulation time: 0 hr 10 min 17 sec) 
Heartbeat CPU 0 instructions: 70000003 cycles: 36837051 heartbeat IPC: 1.0113 cumulative IPC: 1.11031 (Simulation time: 0 hr 12 min 1 sec) 
Heartbeat CPU 0 instructions: 80000003 cycles: 45430243 heartbeat IPC: 1.16371 cumulative IPC: 1.12756 (Simulation time: 0 hr 13 min 33 sec) 
Heartbeat CPU 0 instructions: 90000003 cycles: 53628559 heartbeat IPC: 1.21976 cumulative IPC: 1.14928 (Simulation time: 0 hr 15 min 0 sec) 
Heartbeat CPU 0 instructions: 100000001 cycles: 62125536 heartbeat IPC: 1.17689 cumulative IPC: 1.15469 (Simulation time: 0 hr 16 min 25 sec) 
Finished CPU 0 instructions: 50000002 cycles: 43301517 cumulative IPC: 1.15469 (Simulation time: 0 hr 16 min 25 sec) 

ChampSim completed all CPUs

Region of Interest Statistics

CPU 0 cumulative IPC: 1.15469 instructions: 50000002 cycles: 43301517

SHEET
IPC : 1.15469

L1D TOTAL     ACCESS:   16743722  HIT:   16016510  MISS:     727212
L1D LOAD      ACCESS:    6439237  HIT:    6031159  MISS:     408078
L1D RFO       ACCESS:    4339075  HIT:    4296464  MISS:      42611
L1D PREFETCH  ACCESS:    5965410  HIT:    5688887  MISS:     276523
L1D WRITEBACK ACCESS:          0  HIT:          0  MISS:          0
L1D PREFETCH  REQUESTED:    6482799  ISSUED:    6300116  USEFUL:     115522  USELESS:     160875
L1D AVERAGE MISS LATENCY: 82.753 cycles
L1D

SHEET
L1D-total_access : 16743722
L1D-total_hit : 16016510
L1D-total_miss : 727212
L1D-load_access : 6439237
L1D-load_hit : 6031159
L1D-load_miss : 408078
L1D-rfo_access : 4339075
L1D-rfo_hit : 4296464
L1D-rfo_miss : 42611
L1D-prefetch_access : 5965410
L1D-prefetch_hit : 5688887
L1D-prefetch_miss : 276523
L1D-writeback_access : 0
L1D-writeback_hit : 0
L1D-writeback_miss : 0
L1D-prefetch_requested : 6482799
L1D-prefetch_issued : 6300116
L1D-prefetch_useful : 115522
L1D-prefetch_useless : 160875
L1D-Avg_miss_latency : 82.753

L1I TOTAL     ACCESS:   14390891  HIT:   12659546  MISS:    1731345
L1I LOAD      ACCESS:    8508972  HIT:    8330542  MISS:     178430
L1I RFO       ACCESS:          0  HIT:          0  MISS:          0
L1I PREFETCH  ACCESS:    5881919  HIT:    4329004  MISS:    1552915
L1I WRITEBACK ACCESS:          0  HIT:          0  MISS:          0
L1I PREFETCH  REQUESTED:    6558803  ISSUED:    6383994  USEFUL:    1174835  USELESS:     378144
L1I AVERAGE MISS LATENCY: 19.2632 cycles
L1I

SHEET
L1I-total_access : 14390891
L1I-total_hit : 12659546
L1I-total_miss : 1731345
L1I-load_access : 8508972
L1I-load_hit : 8330542
L1I-load_miss : 178430
L1I-rfo_access : 0
L1I-rfo_hit : 0
L1I-rfo_miss : 0
L1I-prefetch_access : 5881919
L1I-prefetch_hit : 4329004
L1I-prefetch_miss : 1552915
L1I-writeback_access : 0
L1I-writeback_hit : 0
L1I-writeback_miss : 0
L1I-prefetch_requested : 6558803
L1I-prefetch_issued : 6383994
L1I-prefetch_useful : 1174835
L1I-prefetch_useless : 378144
L1I-Avg_miss_latency : 19.2632

L2C TOTAL     ACCESS:    3380595  HIT:    2832617  MISS:     547978
L2C LOAD      ACCESS:     493329  HIT:     253658  MISS:     239671
L2C RFO       ACCESS:      42340  HIT:      12412  MISS:      29928
L2C PREFETCH  ACCESS:    2668959  HIT:    2391363  MISS:     277596
L2C WRITEBACK ACCESS:     175967  HIT:     175184  MISS:        783
L2C PREFETCH  REQUESTED:    3599907  ISSUED:    3574729  USEFUL:      15006  USELESS:     262940
L2C AVERAGE MISS LATENCY: 118.801 cycles
L2C

SHEET
L2C-total_access : 3380595
L2C-total_hit : 2832617
L2C-total_miss : 547978
L2C-load_access : 493329
L2C-load_hit : 253658
L2C-load_miss : 239671
L2C-rfo_access : 42340
L2C-rfo_hit : 12412
L2C-rfo_miss : 29928
L2C-prefetch_access : 2668959
L2C-prefetch_hit : 2391363
L2C-prefetch_miss : 277596
L2C-writeback_access : 175967
L2C-writeback_hit : 175184
L2C-writeback_miss : 783
L2C-prefetch_requested : 3599907
L2C-prefetch_issued : 3574729
L2C-prefetch_useful : 15006
L2C-prefetch_useless : 262940
L2C-Avg_miss_latency : 118.801

LLC TOTAL     ACCESS:    1411172  HIT:    1016228  MISS:     394944
LLC LOAD      ACCESS:     230040  HIT:     134745  MISS:      95295
LLC RFO       ACCESS:      29927  HIT:       5219  MISS:      24708
LLC PREFETCH  ACCESS:    1016884  HIT:     742520  MISS:     274364
LLC WRITEBACK ACCESS:     134321  HIT:     133744  MISS:        577
LLC PREFETCH  REQUESTED:          0  ISSUED:          0  USEFUL:      41454  USELESS:     235701
LLC AVERAGE MISS LATENCY: 199.82 cycles
LLC

SHEET
LLC-total_access : 1411172
LLC-total_hit : 1016228
LLC-total_miss : 394944
LLC-load_access : 230040
LLC-load_hit : 134745
LLC-load_miss : 95295
LLC-rfo_access : 29927
LLC-rfo_hit : 5219
LLC-rfo_miss : 24708
LLC-prefetch_access : 1016884
LLC-prefetch_hit : 742520
LLC-prefetch_miss : 274364
LLC-writeback_access : 134321
LLC-writeback_hit : 133744
LLC-writeback_miss : 577
LLC-prefetch_requested : 0
LLC-prefetch_issued : 0
LLC-prefetch_useful : 41454
LLC-prefetch_useless : 235701
LLC-Avg_miss_latency : 199.82

Major fault: 0 Minor fault: 10591



Printing Logs
statHeadFound: 455416
statHeadMissing: 584608
statStreamBufferHit: 10767071
statPrefetchEntryFound: 3514126
statCompactorMatch: 10812343
statStreamTrackerLookup: 11807095
statRecord: 994752
statGetPointer: 1040024
statEnqueuePrefetch: 12342360
statPrefetchQueueIsFull: 16758
StreamBufferHitRate: 0.911915
Regions' size: 2716
next_region_correct: 760707
next_region_wrong: 231311
next_region_correct_prediction: 0.766828
statStreamBufferLookups: 850110840
statL1iLookups: 98738880
statCompactorLookups: 425055420
morteza: start

SHEET
mana_table_access_counter : 1448274
mana_table_multiple_access_counter : 3536357
hobp_table_access_counter : 15836035
sab_access_counter : 14281197
srq_access_counter : 10905442

morteza: end
CPU 0 L1D next line prefetcher final stats

DRAM Statistics
 CHANNEL 0
 RQ ROW_BUFFER_HIT:     104104  ROW_BUFFER_MISS:     290247
 DBUS_CONGESTED:     230491
 WQ ROW_BUFFER_HIT:      21500  ROW_BUFFER_MISS:      93999  FULL:          0

 AVG_CONGESTED_CYCLE: 5

CPU 0 Branch Prediction Accuracy: 98.1683% MPKI: 3.13642 Average ROB Occupancy at Mispredict: 82.4949

Branch types
NOT_BRANCH: 41438057 82.8761%
BRANCH_DIRECT_JUMP: 413829 0.827658%
BRANCH_INDIRECT: 47058 0.094116%
BRANCH_CONDITIONAL: 6843835 13.6877%
BRANCH_DIRECT_CALL: 536885 1.07377%
BRANCH_INDIRECT_CALL: 90642 0.181284%
BRANCH_RETURN: 629329 1.25866%
BRANCH_OTHER: 0 0%

