Initialize SIGNATURE TABLE
ST_SET: 1
ST_WAY: 256
ST_TAG_BIT: 16
ST_TAG_MASK: ffff

Initialize PATTERN TABLE
PT_SET: 512
PT_WAY: 4
SIG_DELTA_BIT: 7
C_SIG_BIT: 4
C_DELTA_BIT: 4

Initialize PREFETCH FILTER
FILTER_SET: 1024
MANA initialize 
tds: 2 tdm: 4
size MANA SINGLE: 74 KB
size MANA NULTIPLE: 43 KB
size HOBPT: 5 KB
size SRQ: 0.14502 KB
size SABs: 0.290039 KB
size prefetch queue: 0.453125 KB
total: 122.888 KB

*** ChampSim Multicore Out-of-Order Simulator ***

Warmup Instructions: 50000000
Simulation Instructions: 50000000
Number of CPUs: 1
LLC sets: 2048
LLC ways: 16
Off-chip DRAM Size: 4096 MB Channels: 1 Width: 64-bit Data Rate: 3200 MT/s

CPU 0 runs /home/mbaradaran/ChampSim/dpc3_traces/client_003.champsimtrace.xz
CPU 0 L1D next line prefetcher
Heartbeat CPU 0 instructions: 10000000 cycles: 3479299 heartbeat IPC: 2.87414 cumulative IPC: 2.87414 (Simulation time: 0 hr 1 min 38 sec) 
Heartbeat CPU 0 instructions: 20000002 cycles: 6934743 heartbeat IPC: 2.89398 cumulative IPC: 2.88403 (Simulation time: 0 hr 3 min 38 sec) 
Heartbeat CPU 0 instructions: 30000003 cycles: 10496182 heartbeat IPC: 2.80785 cumulative IPC: 2.85818 (Simulation time: 0 hr 5 min 38 sec) 
Heartbeat CPU 0 instructions: 40000001 cycles: 14113166 heartbeat IPC: 2.76473 cumulative IPC: 2.83423 (Simulation time: 0 hr 7 min 38 sec) 
Heartbeat CPU 0 instructions: 50000003 cycles: 17658741 heartbeat IPC: 2.82042 cumulative IPC: 2.83146 (Simulation time: 0 hr 9 min 31 sec) 

Warmup complete CPU 0 instructions: 50000003 cycles: 17658741 (Simulation time: 0 hr 9 min 31 sec) 

Heartbeat CPU 0 instructions: 60000002 cycles: 24341738 heartbeat IPC: 1.49633 cumulative IPC: 1.49633 (Simulation time: 0 hr 11 min 10 sec) 
Heartbeat CPU 0 instructions: 70000001 cycles: 30775073 heartbeat IPC: 1.5544 cumulative IPC: 1.52482 (Simulation time: 0 hr 12 min 48 sec) 
Heartbeat CPU 0 instructions: 80000001 cycles: 38053982 heartbeat IPC: 1.37383 cumulative IPC: 1.47093 (Simulation time: 0 hr 14 min 27 sec) 
Heartbeat CPU 0 instructions: 90000000 cycles: 47016852 heartbeat IPC: 1.11571 cumulative IPC: 1.36249 (Simulation time: 0 hr 15 min 53 sec) 
Heartbeat CPU 0 instructions: 100000003 cycles: 57994200 heartbeat IPC: 0.910967 cumulative IPC: 1.2396 (Simulation time: 0 hr 17 min 32 sec) 
Finished CPU 0 instructions: 50000000 cycles: 40335459 cumulative IPC: 1.2396 (Simulation time: 0 hr 17 min 32 sec) 

ChampSim completed all CPUs

Region of Interest Statistics

CPU 0 cumulative IPC: 1.2396 instructions: 50000000 cycles: 40335459

SHEET
IPC : 1.2396

L1D TOTAL     ACCESS:   17996745  HIT:   17500580  MISS:     496165
L1D LOAD      ACCESS:    6216003  HIT:    6091047  MISS:     124956
L1D RFO       ACCESS:    5958194  HIT:    5724086  MISS:     234108
L1D PREFETCH  ACCESS:    5822548  HIT:    5685447  MISS:     137101
L1D WRITEBACK ACCESS:          0  HIT:          0  MISS:          0
L1D PREFETCH  REQUESTED:    6257937  ISSUED:    6112448  USEFUL:      68979  USELESS:      68169
L1D AVERAGE MISS LATENCY: 123.413 cycles
L1D

SHEET
L1D-total_access : 17996745
L1D-total_hit : 17500580
L1D-total_miss : 496165
L1D-load_access : 6216003
L1D-load_hit : 6091047
L1D-load_miss : 124956
L1D-rfo_access : 5958194
L1D-rfo_hit : 5724086
L1D-rfo_miss : 234108
L1D-prefetch_access : 5822548
L1D-prefetch_hit : 5685447
L1D-prefetch_miss : 137101
L1D-writeback_access : 0
L1D-writeback_hit : 0
L1D-writeback_miss : 0
L1D-prefetch_requested : 6257937
L1D-prefetch_issued : 6112448
L1D-prefetch_useful : 68979
L1D-prefetch_useless : 68169
L1D-Avg_miss_latency : 123.413

L1I TOTAL     ACCESS:   17020158  HIT:   14733968  MISS:    2286190
L1I LOAD      ACCESS:    9499384  HIT:    9100925  MISS:     398459
L1I RFO       ACCESS:          0  HIT:          0  MISS:          0
L1I PREFETCH  ACCESS:    7520774  HIT:    5633043  MISS:    1887731
L1I WRITEBACK ACCESS:          0  HIT:          0  MISS:          0
L1I PREFETCH  REQUESTED:    8411733  ISSUED:    8236836  USEFUL:    1061773  USELESS:     825986
L1I AVERAGE MISS LATENCY: 16.4311 cycles
L1I

SHEET
L1I-total_access : 17020158
L1I-total_hit : 14733968
L1I-total_miss : 2286190
L1I-load_access : 9499384
L1I-load_hit : 9100925
L1I-load_miss : 398459
L1I-rfo_access : 0
L1I-rfo_hit : 0
L1I-rfo_miss : 0
L1I-prefetch_access : 7520774
L1I-prefetch_hit : 5633043
L1I-prefetch_miss : 1887731
L1I-writeback_access : 0
L1I-writeback_hit : 0
L1I-writeback_miss : 0
L1I-prefetch_requested : 8411733
L1I-prefetch_issued : 8236836
L1I-prefetch_useful : 1061773
L1I-prefetch_useless : 825986
L1I-Avg_miss_latency : 16.4311

L2C TOTAL     ACCESS:    3999415  HIT:    3600933  MISS:     398482
L2C LOAD      ACCESS:     407369  HIT:     361139  MISS:      46230
L2C RFO       ACCESS:     232002  HIT:      25878  MISS:     206124
L2C PREFETCH  ACCESS:    3090748  HIT:    2945817  MISS:     144931
L2C WRITEBACK ACCESS:     269296  HIT:     268099  MISS:       1197
L2C PREFETCH  REQUESTED:    2685196  ISSUED:    2684323  USEFUL:      16695  USELESS:     127357
L2C AVERAGE MISS LATENCY: 168.427 cycles
L2C

SHEET
L2C-total_access : 3999415
L2C-total_hit : 3600933
L2C-total_miss : 398482
L2C-load_access : 407369
L2C-load_hit : 361139
L2C-load_miss : 46230
L2C-rfo_access : 232002
L2C-rfo_hit : 25878
L2C-rfo_miss : 206124
L2C-prefetch_access : 3090748
L2C-prefetch_hit : 2945817
L2C-prefetch_miss : 144931
L2C-writeback_access : 269296
L2C-writeback_hit : 268099
L2C-writeback_miss : 1197
L2C-prefetch_requested : 2685196
L2C-prefetch_issued : 2684323
L2C-prefetch_useful : 16695
L2C-prefetch_useless : 127357
L2C-Avg_miss_latency : 168.427

LLC TOTAL     ACCESS:    1214653  HIT:     922072  MISS:     292581
LLC LOAD      ACCESS:      46157  HIT:      32903  MISS:      13254
LLC RFO       ACCESS:     206114  HIT:      33412  MISS:     172702
LLC PREFETCH  ACCESS:     737987  HIT:     631801  MISS:     106186
LLC WRITEBACK ACCESS:     224395  HIT:     223956  MISS:        439
LLC PREFETCH  REQUESTED:          0  ISSUED:          0  USEFUL:      11549  USELESS:      94895
LLC AVERAGE MISS LATENCY: 232.217 cycles
LLC

SHEET
LLC-total_access : 1214653
LLC-total_hit : 922072
LLC-total_miss : 292581
LLC-load_access : 46157
LLC-load_hit : 32903
LLC-load_miss : 13254
LLC-rfo_access : 206114
LLC-rfo_hit : 33412
LLC-rfo_miss : 172702
LLC-prefetch_access : 737987
LLC-prefetch_hit : 631801
LLC-prefetch_miss : 106186
LLC-writeback_access : 224395
LLC-writeback_hit : 223956
LLC-writeback_miss : 439
LLC-prefetch_requested : 0
LLC-prefetch_issued : 0
LLC-prefetch_useful : 11549
LLC-prefetch_useless : 94895
LLC-Avg_miss_latency : 232.217

Major fault: 0 Minor fault: 5110



Printing Logs
statHeadFound: 980507
statHeadMissing: 1534531
statStreamBufferHit: 11496778
statPrefetchEntryFound: 7105769
statCompactorMatch: 11711297
statStreamTrackerLookup: 14011816
statRecord: 2300519
statGetPointer: 2515038
statEnqueuePrefetch: 19792537
statPrefetchQueueIsFull: 37395
StreamBufferHitRate: 0.820506
Regions' size: 8290
next_region_correct: 1545426
next_region_wrong: 746785
next_region_correct_prediction: 0.674208
statStreamBufferLookups: 1008850752
statL1iLookups: 158340296
statCompactorLookups: 504425376
morteza: start

SHEET
mana_table_access_counter : 3201729
mana_table_multiple_access_counter : 7237170
hobp_table_access_counter : 36490027
sab_access_counter : 18602547
srq_access_counter : 14748760

morteza: end
CPU 0 L1D next line prefetcher final stats

DRAM Statistics
 CHANNEL 0
 RQ ROW_BUFFER_HIT:     101635  ROW_BUFFER_MISS:     190503
 DBUS_CONGESTED:     260430
 WQ ROW_BUFFER_HIT:      59026  ROW_BUFFER_MISS:     120348  FULL:          0

 AVG_CONGESTED_CYCLE: 6

CPU 0 Branch Prediction Accuracy: 98.6631% MPKI: 2.66884 Average ROB Occupancy at Mispredict: 61.1385

Branch types
NOT_BRANCH: 40018636 80.0373%
BRANCH_DIRECT_JUMP: 370859 0.741718%
BRANCH_INDIRECT: 83252 0.166504%
BRANCH_CONDITIONAL: 7877417 15.7548%
BRANCH_DIRECT_CALL: 722308 1.44462%
BRANCH_INDIRECT_CALL: 101901 0.203802%
BRANCH_RETURN: 825352 1.6507%
BRANCH_OTHER: 0 0%

