Initialize SIGNATURE TABLE
ST_SET: 1
ST_WAY: 256
ST_TAG_BIT: 16
ST_TAG_MASK: ffff

Initialize PATTERN TABLE
PT_SET: 512
PT_WAY: 4
SIG_DELTA_BIT: 7
C_SIG_BIT: 4
C_DELTA_BIT: 4

Initialize PREFETCH FILTER
FILTER_SET: 1024
MANA initialize 
tds: 2 tdm: 4
size MANA SINGLE: 74 KB
size MANA NULTIPLE: 43 KB
size HOBPT: 5 KB
size SRQ: 0.14502 KB
size SABs: 0.290039 KB
size prefetch queue: 0.453125 KB
total: 122.888 KB

*** ChampSim Multicore Out-of-Order Simulator ***

Warmup Instructions: 50000000
Simulation Instructions: 50000000
Number of CPUs: 1
LLC sets: 2048
LLC ways: 16
Off-chip DRAM Size: 4096 MB Channels: 1 Width: 64-bit Data Rate: 3200 MT/s

CPU 0 runs /home/mbaradaran/ChampSim/dpc3_traces/server_023.champsimtrace.xz
CPU 0 L1D next line prefetcher
Heartbeat CPU 0 instructions: 10000000 cycles: 3511964 heartbeat IPC: 2.84741 cumulative IPC: 2.84741 (Simulation time: 0 hr 1 min 54 sec) 
Heartbeat CPU 0 instructions: 20000000 cycles: 7023565 heartbeat IPC: 2.8477 cumulative IPC: 2.84756 (Simulation time: 0 hr 3 min 55 sec) 
Heartbeat CPU 0 instructions: 30000001 cycles: 10527041 heartbeat IPC: 2.85431 cumulative IPC: 2.8498 (Simulation time: 0 hr 5 min 51 sec) 
Heartbeat CPU 0 instructions: 40000003 cycles: 14036675 heartbeat IPC: 2.8493 cumulative IPC: 2.84968 (Simulation time: 0 hr 7 min 51 sec) 
Heartbeat CPU 0 instructions: 50000001 cycles: 17548623 heartbeat IPC: 2.84742 cumulative IPC: 2.84923 (Simulation time: 0 hr 9 min 49 sec) 

Warmup complete CPU 0 instructions: 50000001 cycles: 17548623 (Simulation time: 0 hr 9 min 49 sec) 

Heartbeat CPU 0 instructions: 60000002 cycles: 24696703 heartbeat IPC: 1.39898 cumulative IPC: 1.39898 (Simulation time: 0 hr 11 min 42 sec) 
Heartbeat CPU 0 instructions: 70000002 cycles: 32074503 heartbeat IPC: 1.35542 cumulative IPC: 1.37685 (Simulation time: 0 hr 13 min 34 sec) 
Heartbeat CPU 0 instructions: 80000000 cycles: 39322236 heartbeat IPC: 1.37974 cumulative IPC: 1.37781 (Simulation time: 0 hr 15 min 20 sec) 
Heartbeat CPU 0 instructions: 90000000 cycles: 46536786 heartbeat IPC: 1.38609 cumulative IPC: 1.37987 (Simulation time: 0 hr 16 min 57 sec) 
Heartbeat CPU 0 instructions: 100000001 cycles: 53780116 heartbeat IPC: 1.38058 cumulative IPC: 1.38001 (Simulation time: 0 hr 18 min 51 sec) 
Finished CPU 0 instructions: 50000000 cycles: 36231493 cumulative IPC: 1.38001 (Simulation time: 0 hr 18 min 51 sec) 

ChampSim completed all CPUs

Region of Interest Statistics

CPU 0 cumulative IPC: 1.38001 instructions: 50000000 cycles: 36231493

SHEET
IPC : 1.38001

L1D TOTAL     ACCESS:   19825913  HIT:   18358466  MISS:    1467447
L1D LOAD      ACCESS:    7077884  HIT:    6417496  MISS:     660388
L1D RFO       ACCESS:    5992190  HIT:    5730866  MISS:     261324
L1D PREFETCH  ACCESS:    6755839  HIT:    6210104  MISS:     545735
L1D WRITEBACK ACCESS:          0  HIT:          0  MISS:          0
L1D PREFETCH  REQUESTED:    7128906  ISSUED:    7010395  USEFUL:     130705  USELESS:     415038
L1D AVERAGE MISS LATENCY: 24.6186 cycles
L1D

SHEET
L1D-total_access : 19825913
L1D-total_hit : 18358466
L1D-total_miss : 1467447
L1D-load_access : 7077884
L1D-load_hit : 6417496
L1D-load_miss : 660388
L1D-rfo_access : 5992190
L1D-rfo_hit : 5730866
L1D-rfo_miss : 261324
L1D-prefetch_access : 6755839
L1D-prefetch_hit : 6210104
L1D-prefetch_miss : 545735
L1D-writeback_access : 0
L1D-writeback_hit : 0
L1D-writeback_miss : 0
L1D-prefetch_requested : 7128906
L1D-prefetch_issued : 7010395
L1D-prefetch_useful : 130705
L1D-prefetch_useless : 415038
L1D-Avg_miss_latency : 24.6186

L1I TOTAL     ACCESS:   17550219  HIT:   12607170  MISS:    4943049
L1I LOAD      ACCESS:    9333305  HIT:    8651377  MISS:     681928
L1I RFO       ACCESS:          0  HIT:          0  MISS:          0
L1I PREFETCH  ACCESS:    8216914  HIT:    3955793  MISS:    4261121
L1I WRITEBACK ACCESS:          0  HIT:          0  MISS:          0
L1I PREFETCH  REQUESTED:    9211105  ISSUED:    8988625  USEFUL:    2270654  USELESS:    1990520
L1I AVERAGE MISS LATENCY: 16.2431 cycles
L1I

SHEET
L1I-total_access : 17550219
L1I-total_hit : 12607170
L1I-total_miss : 4943049
L1I-load_access : 9333305
L1I-load_hit : 8651377
L1I-load_miss : 681928
L1I-rfo_access : 0
L1I-rfo_hit : 0
L1I-rfo_miss : 0
L1I-prefetch_access : 8216914
L1I-prefetch_hit : 3955793
L1I-prefetch_miss : 4261121
L1I-writeback_access : 0
L1I-writeback_hit : 0
L1I-writeback_miss : 0
L1I-prefetch_requested : 9211105
L1I-prefetch_issued : 8988625
L1I-prefetch_useful : 2270654
L1I-prefetch_useless : 1990520
L1I-Avg_miss_latency : 16.2431

L2C TOTAL     ACCESS:    8571570  HIT:    7920769  MISS:     650801
L2C LOAD      ACCESS:    1101593  HIT:     946914  MISS:     154679
L2C RFO       ACCESS:     259522  HIT:     179224  MISS:      80298
L2C PREFETCH  ACCESS:    6711215  HIT:    6299279  MISS:     411936
L2C WRITEBACK ACCESS:     499240  HIT:     495352  MISS:       3888
L2C PREFETCH  REQUESTED:    7008519  ISSUED:    6997445  USEFUL:      43457  USELESS:     367690
L2C AVERAGE MISS LATENCY: 42.6435 cycles
L2C

SHEET
L2C-total_access : 8571570
L2C-total_hit : 7920769
L2C-total_miss : 650801
L2C-load_access : 1101593
L2C-load_hit : 946914
L2C-load_miss : 154679
L2C-rfo_access : 259522
L2C-rfo_hit : 179224
L2C-rfo_miss : 80298
L2C-prefetch_access : 6711215
L2C-prefetch_hit : 6299279
L2C-prefetch_miss : 411936
L2C-writeback_access : 499240
L2C-writeback_hit : 495352
L2C-writeback_miss : 3888
L2C-prefetch_requested : 7008519
L2C-prefetch_issued : 6997445
L2C-prefetch_useful : 43457
L2C-prefetch_useless : 367690
L2C-Avg_miss_latency : 42.6435

LLC TOTAL     ACCESS:    2425588  HIT:    2378030  MISS:      47558
LLC LOAD      ACCESS:     154500  HIT:     148301  MISS:       6199
LLC RFO       ACCESS:      80295  HIT:      62389  MISS:      17906
LLC PREFETCH  ACCESS:    2054907  HIT:    2031704  MISS:      23203
LLC WRITEBACK ACCESS:     135886  HIT:     135636  MISS:        250
LLC PREFETCH  REQUESTED:          0  ISSUED:          0  USEFUL:       2359  USELESS:      20440
LLC AVERAGE MISS LATENCY: 183.995 cycles
LLC

SHEET
LLC-total_access : 2425588
LLC-total_hit : 2378030
LLC-total_miss : 47558
LLC-load_access : 154500
LLC-load_hit : 148301
LLC-load_miss : 6199
LLC-rfo_access : 80295
LLC-rfo_hit : 62389
LLC-rfo_miss : 17906
LLC-prefetch_access : 2054907
LLC-prefetch_hit : 2031704
LLC-prefetch_miss : 23203
LLC-writeback_access : 135886
LLC-writeback_hit : 135636
LLC-writeback_miss : 250
LLC-prefetch_requested : 0
LLC-prefetch_issued : 0
LLC-prefetch_useful : 2359
LLC-prefetch_useless : 20440
LLC-Avg_miss_latency : 183.995

Major fault: 0 Minor fault: 2833



Printing Logs
statHeadFound: 759537
statHeadMissing: 693719
statStreamBufferHit: 12717992
statPrefetchEntryFound: 5984918
statCompactorMatch: 11835463
statStreamTrackerLookup: 14171248
statRecord: 2335785
statGetPointer: 1453256
statEnqueuePrefetch: 18034480
statPrefetchQueueIsFull: 33956
StreamBufferHitRate: 0.89745
Regions' size: 2855
next_region_correct: 1582197
next_region_wrong: 750715
next_region_correct_prediction: 0.678207
statStreamBufferLookups: 1020329856
statL1iLookups: 144275840
statCompactorLookups: 510164928
morteza: start

SHEET
mana_table_access_counter : 4263263
mana_table_multiple_access_counter : 4855163
hobp_table_access_counter : 26995102
sab_access_counter : 18702910
srq_access_counter : 15176171

morteza: end
CPU 0 L1D next line prefetcher final stats

DRAM Statistics
 CHANNEL 0
 RQ ROW_BUFFER_HIT:      14769  ROW_BUFFER_MISS:      32527
 DBUS_CONGESTED:      31622
 WQ ROW_BUFFER_HIT:       2455  ROW_BUFFER_MISS:      19123  FULL:          0

 AVG_CONGESTED_CYCLE: 6

CPU 0 Branch Prediction Accuracy: 99.6798% MPKI: 0.58608 Average ROB Occupancy at Mispredict: 124.802

Branch types
NOT_BRANCH: 40848239 81.6965%
BRANCH_DIRECT_JUMP: 548372 1.09674%
BRANCH_INDIRECT: 189802 0.379604%
BRANCH_CONDITIONAL: 6372761 12.7455%
BRANCH_DIRECT_CALL: 862206 1.72441%
BRANCH_INDIRECT_CALL: 158148 0.316296%
BRANCH_RETURN: 1020343 2.04069%
BRANCH_OTHER: 0 0%

