Initialize SIGNATURE TABLE
ST_SET: 1
ST_WAY: 256
ST_TAG_BIT: 16
ST_TAG_MASK: ffff

Initialize PATTERN TABLE
PT_SET: 512
PT_WAY: 4
SIG_DELTA_BIT: 7
C_SIG_BIT: 4
C_DELTA_BIT: 4

Initialize PREFETCH FILTER
FILTER_SET: 1024
MANA initialize 
tds: 2 tdm: 4
size MANA SINGLE: 74 KB
size MANA NULTIPLE: 43 KB
size HOBPT: 5 KB
size SRQ: 0.14502 KB
size SABs: 0.290039 KB
size prefetch queue: 0.453125 KB
total: 122.888 KB

*** ChampSim Multicore Out-of-Order Simulator ***

Warmup Instructions: 50000000
Simulation Instructions: 50000000
Number of CPUs: 1
LLC sets: 2048
LLC ways: 16
Off-chip DRAM Size: 4096 MB Channels: 1 Width: 64-bit Data Rate: 3200 MT/s

CPU 0 runs /home/mbaradaran/ChampSim/dpc3_traces/server_026.champsimtrace.xz
CPU 0 L1D next line prefetcher
Heartbeat CPU 0 instructions: 10000000 cycles: 3538312 heartbeat IPC: 2.82621 cumulative IPC: 2.82621 (Simulation time: 0 hr 1 min 59 sec) 
Heartbeat CPU 0 instructions: 20000002 cycles: 7082790 heartbeat IPC: 2.82129 cumulative IPC: 2.82375 (Simulation time: 0 hr 3 min 59 sec) 
Heartbeat CPU 0 instructions: 30000000 cycles: 10616283 heartbeat IPC: 2.83006 cumulative IPC: 2.82585 (Simulation time: 0 hr 6 min 3 sec) 
Heartbeat CPU 0 instructions: 40000003 cycles: 14158770 heartbeat IPC: 2.82288 cumulative IPC: 2.8251 (Simulation time: 0 hr 8 min 3 sec) 
Heartbeat CPU 0 instructions: 50000000 cycles: 17693960 heartbeat IPC: 2.8287 cumulative IPC: 2.82582 (Simulation time: 0 hr 10 min 7 sec) 

Warmup complete CPU 0 instructions: 50000004 cycles: 17693961 (Simulation time: 0 hr 10 min 7 sec) 

*** Reached end of trace for Core: 0 Repeating trace: /home/mbaradaran/ChampSim/dpc3_traces/server_026.champsimtrace.xz
Heartbeat CPU 0 instructions: 60000000 cycles: 25024731 heartbeat IPC: 1.36411 cumulative IPC: 1.36411 (Simulation time: 0 hr 11 min 59 sec) 
Heartbeat CPU 0 instructions: 70000003 cycles: 32252594 heartbeat IPC: 1.38354 cumulative IPC: 1.37376 (Simulation time: 0 hr 13 min 51 sec) 
Heartbeat CPU 0 instructions: 80000003 cycles: 39579495 heartbeat IPC: 1.36483 cumulative IPC: 1.37077 (Simulation time: 0 hr 15 min 47 sec) 
Heartbeat CPU 0 instructions: 90000002 cycles: 46817262 heartbeat IPC: 1.38164 cumulative IPC: 1.37347 (Simulation time: 0 hr 17 min 42 sec) 
Heartbeat CPU 0 instructions: 100000000 cycles: 54128266 heartbeat IPC: 1.3678 cumulative IPC: 1.37233 (Simulation time: 0 hr 19 min 27 sec) 
Finished CPU 0 instructions: 50000000 cycles: 36434306 cumulative IPC: 1.37233 (Simulation time: 0 hr 19 min 27 sec) 

ChampSim completed all CPUs

Region of Interest Statistics

CPU 0 cumulative IPC: 1.37233 instructions: 50000000 cycles: 36434306

SHEET
IPC : 1.37233

L1D TOTAL     ACCESS:   20253254  HIT:   18607656  MISS:    1645598
L1D LOAD      ACCESS:    7170098  HIT:    6441913  MISS:     728185
L1D RFO       ACCESS:    6247510  HIT:    5960761  MISS:     286749
L1D PREFETCH  ACCESS:    6835646  HIT:    6204982  MISS:     630664
L1D WRITEBACK ACCESS:          0  HIT:          0  MISS:          0
L1D PREFETCH  REQUESTED:    7217064  ISSUED:    7079807  USEFUL:     152785  USELESS:     477887
L1D AVERAGE MISS LATENCY: 23.8501 cycles
L1D

SHEET
L1D-total_access : 20253254
L1D-total_hit : 18607656
L1D-total_miss : 1645598
L1D-load_access : 7170098
L1D-load_hit : 6441913
L1D-load_miss : 728185
L1D-rfo_access : 6247510
L1D-rfo_hit : 5960761
L1D-rfo_miss : 286749
L1D-prefetch_access : 6835646
L1D-prefetch_hit : 6204982
L1D-prefetch_miss : 630664
L1D-writeback_access : 0
L1D-writeback_hit : 0
L1D-writeback_miss : 0
L1D-prefetch_requested : 7217064
L1D-prefetch_issued : 7079807
L1D-prefetch_useful : 152785
L1D-prefetch_useless : 477887
L1D-Avg_miss_latency : 23.8501

L1I TOTAL     ACCESS:   17886274  HIT:   12438755  MISS:    5447519
L1I LOAD      ACCESS:    9353825  HIT:    8586560  MISS:     767265
L1I RFO       ACCESS:          0  HIT:          0  MISS:          0
L1I PREFETCH  ACCESS:    8532449  HIT:    3852195  MISS:    4680254
L1I WRITEBACK ACCESS:          0  HIT:          0  MISS:          0
L1I PREFETCH  REQUESTED:    9563935  ISSUED:    9345506  USEFUL:    2561600  USELESS:    2118708
L1I AVERAGE MISS LATENCY: 16.6223 cycles
L1I

SHEET
L1I-total_access : 17886274
L1I-total_hit : 12438755
L1I-total_miss : 5447519
L1I-load_access : 9353825
L1I-load_hit : 8586560
L1I-load_miss : 767265
L1I-rfo_access : 0
L1I-rfo_hit : 0
L1I-rfo_miss : 0
L1I-prefetch_access : 8532449
L1I-prefetch_hit : 3852195
L1I-prefetch_miss : 4680254
L1I-writeback_access : 0
L1I-writeback_hit : 0
L1I-writeback_miss : 0
L1I-prefetch_requested : 9563935
L1I-prefetch_issued : 9345506
L1I-prefetch_useful : 2561600
L1I-prefetch_useless : 2118708
L1I-Avg_miss_latency : 16.6223

L2C TOTAL     ACCESS:    9536380  HIT:    8738826  MISS:     797554
L2C LOAD      ACCESS:    1242778  HIT:    1062988  MISS:     179790
L2C RFO       ACCESS:     284694  HIT:     185140  MISS:      99554
L2C PREFETCH  ACCESS:    7447791  HIT:    6935881  MISS:     511910
L2C WRITEBACK ACCESS:     561117  HIT:     554817  MISS:       6300
L2C PREFETCH  REQUESTED:    8261546  ISSUED:    8245799  USEFUL:      46889  USELESS:     463948
L2C AVERAGE MISS LATENCY: 38.9667 cycles
L2C

SHEET
L2C-total_access : 9536380
L2C-total_hit : 8738826
L2C-total_miss : 797554
L2C-load_access : 1242778
L2C-load_hit : 1062988
L2C-load_miss : 179790
L2C-rfo_access : 284694
L2C-rfo_hit : 185140
L2C-rfo_miss : 99554
L2C-prefetch_access : 7447791
L2C-prefetch_hit : 6935881
L2C-prefetch_miss : 511910
L2C-writeback_access : 561117
L2C-writeback_hit : 554817
L2C-writeback_miss : 6300
L2C-prefetch_requested : 8261546
L2C-prefetch_issued : 8245799
L2C-prefetch_useful : 46889
L2C-prefetch_useless : 463948
L2C-Avg_miss_latency : 38.9667

LLC TOTAL     ACCESS:    2951292  HIT:    2917943  MISS:      33349
LLC LOAD      ACCESS:     179644  HIT:     176103  MISS:       3541
LLC RFO       ACCESS:      99517  HIT:      85213  MISS:      14304
LLC PREFETCH  ACCESS:    2504423  HIT:    2489115  MISS:      15308
LLC WRITEBACK ACCESS:     167708  HIT:     167512  MISS:        196
LLC PREFETCH  REQUESTED:          0  ISSUED:          0  USEFUL:       1043  USELESS:      14084
LLC AVERAGE MISS LATENCY: 190.015 cycles
LLC

SHEET
LLC-total_access : 2951292
LLC-total_hit : 2917943
LLC-total_miss : 33349
LLC-load_access : 179644
LLC-load_hit : 176103
LLC-load_miss : 3541
LLC-rfo_access : 99517
LLC-rfo_hit : 85213
LLC-rfo_miss : 14304
LLC-prefetch_access : 2504423
LLC-prefetch_hit : 2489115
LLC-prefetch_miss : 15308
LLC-writeback_access : 167708
LLC-writeback_hit : 167512
LLC-writeback_miss : 196
LLC-prefetch_requested : 0
LLC-prefetch_issued : 0
LLC-prefetch_useful : 1043
LLC-prefetch_useless : 14084
LLC-Avg_miss_latency : 190.015

Major fault: 0 Minor fault: 2225



Printing Logs
statHeadFound: 763341
statHeadMissing: 818049
statStreamBufferHit: 12645543
statPrefetchEntryFound: 6184095
statCompactorMatch: 11700638
statStreamTrackerLookup: 14226933
statRecord: 2526295
statGetPointer: 1581390
statEnqueuePrefetch: 18607219
statPrefetchQueueIsFull: 29687
StreamBufferHitRate: 0.888845
Regions' size: 2128
next_region_correct: 1707651
next_region_wrong: 816498
next_region_correct_prediction: 0.676525
statStreamBufferLookups: 1024339176
statL1iLookups: 148857752
statCompactorLookups: 512169588
morteza: start

SHEET
mana_table_access_counter : 4638461
mana_table_multiple_access_counter : 4868536
hobp_table_access_counter : 28976037
sab_access_counter : 18829638
srq_access_counter : 15412033

morteza: end
CPU 0 L1D next line prefetcher final stats

DRAM Statistics
 CHANNEL 0
 RQ ROW_BUFFER_HIT:      12043  ROW_BUFFER_MISS:      21099
 DBUS_CONGESTED:      23332
 WQ ROW_BUFFER_HIT:       1422  ROW_BUFFER_MISS:      14213  FULL:          0

 AVG_CONGESTED_CYCLE: 6

CPU 0 Branch Prediction Accuracy: 99.822% MPKI: 0.32584 Average ROB Occupancy at Mispredict: 159.367

Branch types
NOT_BRANCH: 40848551 81.6971%
BRANCH_DIRECT_JUMP: 522045 1.04409%
BRANCH_INDIRECT: 204034 0.408068%
BRANCH_CONDITIONAL: 6212957 12.4259%
BRANCH_DIRECT_CALL: 932391 1.86478%
BRANCH_INDIRECT_CALL: 173764 0.347528%
BRANCH_RETURN: 1106152 2.2123%
BRANCH_OTHER: 0 0%

