Initialize SIGNATURE TABLE
ST_SET: 1
ST_WAY: 256
ST_TAG_BIT: 16
ST_TAG_MASK: ffff

Initialize PATTERN TABLE
PT_SET: 512
PT_WAY: 4
SIG_DELTA_BIT: 7
C_SIG_BIT: 4
C_DELTA_BIT: 4

Initialize PREFETCH FILTER
FILTER_SET: 1024
MANA initialize 
tds: 2 tdm: 4
size MANA SINGLE: 74 KB
size MANA NULTIPLE: 43 KB
size HOBPT: 5 KB
size SRQ: 0.14502 KB
size SABs: 0.290039 KB
size prefetch queue: 0.453125 KB
total: 122.888 KB

*** ChampSim Multicore Out-of-Order Simulator ***

Warmup Instructions: 50000000
Simulation Instructions: 50000000
Number of CPUs: 1
LLC sets: 2048
LLC ways: 16
Off-chip DRAM Size: 4096 MB Channels: 1 Width: 64-bit Data Rate: 3200 MT/s

CPU 0 runs /home/mbaradaran/ChampSim/dpc3_traces/server_004.champsimtrace.xz
CPU 0 L1D next line prefetcher
Heartbeat CPU 0 instructions: 10000002 cycles: 3235496 heartbeat IPC: 3.09072 cumulative IPC: 3.09072 (Simulation time: 0 hr 1 min 44 sec) 
Heartbeat CPU 0 instructions: 20000002 cycles: 6575752 heartbeat IPC: 2.99378 cumulative IPC: 3.04148 (Simulation time: 0 hr 3 min 22 sec) 
Heartbeat CPU 0 instructions: 30000000 cycles: 11693859 heartbeat IPC: 1.95385 cumulative IPC: 2.56545 (Simulation time: 0 hr 5 min 44 sec) 
Heartbeat CPU 0 instructions: 40000003 cycles: 15446957 heartbeat IPC: 2.66447 cumulative IPC: 2.58951 (Simulation time: 0 hr 7 min 34 sec) 
Heartbeat CPU 0 instructions: 50000003 cycles: 18682024 heartbeat IPC: 3.09113 cumulative IPC: 2.67637 (Simulation time: 0 hr 9 min 20 sec) 

Warmup complete CPU 0 instructions: 50000003 cycles: 18682024 (Simulation time: 0 hr 9 min 20 sec) 

Heartbeat CPU 0 instructions: 60000002 cycles: 27518416 heartbeat IPC: 1.13168 cumulative IPC: 1.13168 (Simulation time: 0 hr 11 min 2 sec) 
Heartbeat CPU 0 instructions: 70000000 cycles: 35860269 heartbeat IPC: 1.19877 cumulative IPC: 1.16426 (Simulation time: 0 hr 12 min 45 sec) 
Heartbeat CPU 0 instructions: 80000001 cycles: 56874820 heartbeat IPC: 0.475861 cumulative IPC: 0.785488 (Simulation time: 0 hr 15 min 37 sec) 
Heartbeat CPU 0 instructions: 90000003 cycles: 71949172 heartbeat IPC: 0.663379 cumulative IPC: 0.750932 (Simulation time: 0 hr 17 min 43 sec) 
Heartbeat CPU 0 instructions: 100000003 cycles: 80872896 heartbeat IPC: 1.12061 cumulative IPC: 0.803977 (Simulation time: 0 hr 19 min 23 sec) 
Finished CPU 0 instructions: 50000000 cycles: 62190872 cumulative IPC: 0.803977 (Simulation time: 0 hr 19 min 23 sec) 

ChampSim completed all CPUs

Region of Interest Statistics

CPU 0 cumulative IPC: 0.803977 instructions: 50000000 cycles: 62190872

SHEET
IPC : 0.803977

L1D TOTAL     ACCESS:   21792349  HIT:   17720997  MISS:    4071352
L1D LOAD      ACCESS:    8676170  HIT:    6657876  MISS:    2018294
L1D RFO       ACCESS:    4650103  HIT:    4543169  MISS:     106934
L1D PREFETCH  ACCESS:    8466076  HIT:    6519952  MISS:    1946124
L1D WRITEBACK ACCESS:          0  HIT:          0  MISS:          0
L1D PREFETCH  REQUESTED:    8712250  ISSUED:    8623238  USEFUL:     106423  USELESS:    1839690
L1D AVERAGE MISS LATENCY: 23.0845 cycles
L1D

SHEET
L1D-total_access : 21792349
L1D-total_hit : 17720997
L1D-total_miss : 4071352
L1D-load_access : 8676170
L1D-load_hit : 6657876
L1D-load_miss : 2018294
L1D-rfo_access : 4650103
L1D-rfo_hit : 4543169
L1D-rfo_miss : 106934
L1D-prefetch_access : 8466076
L1D-prefetch_hit : 6519952
L1D-prefetch_miss : 1946124
L1D-writeback_access : 0
L1D-writeback_hit : 0
L1D-writeback_miss : 0
L1D-prefetch_requested : 8712250
L1D-prefetch_issued : 8623238
L1D-prefetch_useful : 106423
L1D-prefetch_useless : 1839690
L1D-Avg_miss_latency : 23.0845

L1I TOTAL     ACCESS:   17557731  HIT:   14766105  MISS:    2791626
L1I LOAD      ACCESS:   10713781  HIT:   10335661  MISS:     378120
L1I RFO       ACCESS:          0  HIT:          0  MISS:          0
L1I PREFETCH  ACCESS:    6843950  HIT:    4430444  MISS:    2413506
L1I WRITEBACK ACCESS:          0  HIT:          0  MISS:          0
L1I PREFETCH  REQUESTED:    7663852  ISSUED:    7258629  USEFUL:    1382872  USELESS:    1030622
L1I AVERAGE MISS LATENCY: 26.0695 cycles
L1I

SHEET
L1I-total_access : 17557731
L1I-total_hit : 14766105
L1I-total_miss : 2791626
L1I-load_access : 10713781
L1I-load_hit : 10335661
L1I-load_miss : 378120
L1I-rfo_access : 0
L1I-rfo_hit : 0
L1I-rfo_miss : 0
L1I-prefetch_access : 6843950
L1I-prefetch_hit : 4430444
L1I-prefetch_miss : 2413506
L1I-writeback_access : 0
L1I-writeback_hit : 0
L1I-writeback_miss : 0
L1I-prefetch_requested : 7663852
L1I-prefetch_issued : 7258629
L1I-prefetch_useful : 1382872
L1I-prefetch_useless : 1030622
L1I-Avg_miss_latency : 26.0695

L2C TOTAL     ACCESS:    8803807  HIT:    7706129  MISS:    1097678
L2C LOAD      ACCESS:    2292746  HIT:    2017172  MISS:     275574
L2C RFO       ACCESS:     105581  HIT:      56604  MISS:      48977
L2C PREFETCH  ACCESS:    6160407  HIT:    5389562  MISS:     770845
L2C WRITEBACK ACCESS:     245073  HIT:     242791  MISS:       2282
L2C PREFETCH  REQUESTED:    7064294  ISSUED:    7060213  USEFUL:      69502  USELESS:     700373
L2C AVERAGE MISS LATENCY: 59.1121 cycles
L2C

SHEET
L2C-total_access : 8803807
L2C-total_hit : 7706129
L2C-total_miss : 1097678
L2C-load_access : 2292746
L2C-load_hit : 2017172
L2C-load_miss : 275574
L2C-rfo_access : 105581
L2C-rfo_hit : 56604
L2C-rfo_miss : 48977
L2C-prefetch_access : 6160407
L2C-prefetch_hit : 5389562
L2C-prefetch_miss : 770845
L2C-writeback_access : 245073
L2C-writeback_hit : 242791
L2C-writeback_miss : 2282
L2C-prefetch_requested : 7064294
L2C-prefetch_issued : 7060213
L2C-prefetch_useful : 69502
L2C-prefetch_useless : 700373
L2C-Avg_miss_latency : 59.1121

LLC TOTAL     ACCESS:    2629704  HIT:    2389456  MISS:     240248
LLC LOAD      ACCESS:     275098  HIT:     231702  MISS:      43396
LLC RFO       ACCESS:      48971  HIT:      34521  MISS:      14450
LLC PREFETCH  ACCESS:    2162537  HIT:    1980481  MISS:     182056
LLC WRITEBACK ACCESS:     143098  HIT:     142752  MISS:        346
LLC PREFETCH  REQUESTED:          0  ISSUED:          0  USEFUL:      18651  USELESS:     161431
LLC AVERAGE MISS LATENCY: 177.055 cycles
LLC

SHEET
LLC-total_access : 2629704
LLC-total_hit : 2389456
LLC-total_miss : 240248
LLC-load_access : 275098
LLC-load_hit : 231702
LLC-load_miss : 43396
LLC-rfo_access : 48971
LLC-rfo_hit : 34521
LLC-rfo_miss : 14450
LLC-prefetch_access : 2162537
LLC-prefetch_hit : 1980481
LLC-prefetch_miss : 182056
LLC-writeback_access : 143098
LLC-writeback_hit : 142752
LLC-writeback_miss : 346
LLC-prefetch_requested : 0
LLC-prefetch_issued : 0
LLC-prefetch_useful : 18651
LLC-prefetch_useless : 161431
LLC-Avg_miss_latency : 177.055

Major fault: 0 Minor fault: 7656



Printing Logs
statHeadFound: 552719
statHeadMissing: 814680
statStreamBufferHit: 13962962
statPrefetchEntryFound: 4490730
statCompactorMatch: 13469372
statStreamTrackerLookup: 15330361
statRecord: 1860989
statGetPointer: 1367399
statEnqueuePrefetch: 14204921
statPrefetchQueueIsFull: 50047
StreamBufferHitRate: 0.910805
Regions' size: 8699
next_region_correct: 1515632
next_region_wrong: 336640
next_region_correct_prediction: 0.818256
statStreamBufferLookups: 1103785992
statL1iLookups: 113639368
statCompactorLookups: 551892996
morteza: start

SHEET
mana_table_access_counter : 2868882
mana_table_multiple_access_counter : 4103429
hobp_table_access_counter : 22953623
sab_access_counter : 18453692
srq_access_counter : 14058180

morteza: end
CPU 0 L1D next line prefetcher final stats

DRAM Statistics
 CHANNEL 0
 RQ ROW_BUFFER_HIT:      49207  ROW_BUFFER_MISS:     190673
 DBUS_CONGESTED:     100893
 WQ ROW_BUFFER_HIT:      10527  ROW_BUFFER_MISS:      43440  FULL:          0

 AVG_CONGESTED_CYCLE: 5

CPU 0 Branch Prediction Accuracy: 98.1603% MPKI: 3.89124 Average ROB Occupancy at Mispredict: 59.9835

Branch types
NOT_BRANCH: 39423782 78.8476%
BRANCH_DIRECT_JUMP: 551642 1.10328%
BRANCH_INDIRECT: 139368 0.278736%
BRANCH_CONDITIONAL: 7920863 15.8417%
BRANCH_DIRECT_CALL: 776072 1.55214%
BRANCH_INDIRECT_CALL: 194644 0.389288%
BRANCH_RETURN: 993311 1.98662%
BRANCH_OTHER: 0 0%

