Initialize SIGNATURE TABLE
ST_SET: 1
ST_WAY: 256
ST_TAG_BIT: 16
ST_TAG_MASK: ffff

Initialize PATTERN TABLE
PT_SET: 512
PT_WAY: 4
SIG_DELTA_BIT: 7
C_SIG_BIT: 4
C_DELTA_BIT: 4

Initialize PREFETCH FILTER
FILTER_SET: 1024
MANA initialize 
tds: 2 tdm: 4
size MANA SINGLE: 74 KB
size MANA NULTIPLE: 43 KB
size HOBPT: 5 KB
size SRQ: 0.14502 KB
size SABs: 0.290039 KB
size prefetch queue: 0.453125 KB
total: 122.888 KB

*** ChampSim Multicore Out-of-Order Simulator ***

Warmup Instructions: 50000000
Simulation Instructions: 50000000
Number of CPUs: 1
LLC sets: 2048
LLC ways: 16
Off-chip DRAM Size: 4096 MB Channels: 1 Width: 64-bit Data Rate: 3200 MT/s

CPU 0 runs /home/mbaradaran/ChampSim/dpc3_traces/server_011.champsimtrace.xz
CPU 0 L1D next line prefetcher
Heartbeat CPU 0 instructions: 10000002 cycles: 3212547 heartbeat IPC: 3.1128 cumulative IPC: 3.1128 (Simulation time: 0 hr 1 min 49 sec) 
Heartbeat CPU 0 instructions: 20000001 cycles: 6429865 heartbeat IPC: 3.10818 cumulative IPC: 3.11049 (Simulation time: 0 hr 3 min 34 sec) 
Heartbeat CPU 0 instructions: 30000001 cycles: 9691161 heartbeat IPC: 3.06627 cumulative IPC: 3.0956 (Simulation time: 0 hr 5 min 22 sec) 
Heartbeat CPU 0 instructions: 40000003 cycles: 12900905 heartbeat IPC: 3.11551 cumulative IPC: 3.10056 (Simulation time: 0 hr 7 min 9 sec) 
Heartbeat CPU 0 instructions: 50000000 cycles: 16116306 heartbeat IPC: 3.11003 cumulative IPC: 3.10245 (Simulation time: 0 hr 9 min 0 sec) 

Warmup complete CPU 0 instructions: 50000004 cycles: 16116307 (Simulation time: 0 hr 9 min 0 sec) 

Heartbeat CPU 0 instructions: 60000002 cycles: 23942567 heartbeat IPC: 1.27775 cumulative IPC: 1.27775 (Simulation time: 0 hr 10 min 35 sec) 
Heartbeat CPU 0 instructions: 70000000 cycles: 32211018 heartbeat IPC: 1.20942 cumulative IPC: 1.24264 (Simulation time: 0 hr 12 min 16 sec) 
Heartbeat CPU 0 instructions: 80000003 cycles: 41313455 heartbeat IPC: 1.09861 cumulative IPC: 1.19061 (Simulation time: 0 hr 13 min 46 sec) 
Heartbeat CPU 0 instructions: 90000001 cycles: 49371056 heartbeat IPC: 1.24106 cumulative IPC: 1.20284 (Simulation time: 0 hr 15 min 23 sec) 
Heartbeat CPU 0 instructions: 100000002 cycles: 57215767 heartbeat IPC: 1.27474 cumulative IPC: 1.21656 (Simulation time: 0 hr 17 min 1 sec) 
Finished CPU 0 instructions: 50000002 cycles: 41099461 cumulative IPC: 1.21656 (Simulation time: 0 hr 17 min 1 sec) 

ChampSim completed all CPUs

Region of Interest Statistics

CPU 0 cumulative IPC: 1.21656 instructions: 50000002 cycles: 41099461

SHEET
IPC : 1.21656

L1D TOTAL     ACCESS:   18429107  HIT:   17397336  MISS:    1031771
L1D LOAD      ACCESS:    6912323  HIT:    6432015  MISS:     480308
L1D RFO       ACCESS:    4841198  HIT:    4759143  MISS:      82055
L1D PREFETCH  ACCESS:    6675586  HIT:    6206178  MISS:     469408
L1D WRITEBACK ACCESS:          0  HIT:          0  MISS:          0
L1D PREFETCH  REQUESTED:    6950464  ISSUED:    6859328  USEFUL:     138897  USELESS:     330507
L1D AVERAGE MISS LATENCY: 42.0599 cycles
L1D

SHEET
L1D-total_access : 18429107
L1D-total_hit : 17397336
L1D-total_miss : 1031771
L1D-load_access : 6912323
L1D-load_hit : 6432015
L1D-load_miss : 480308
L1D-rfo_access : 4841198
L1D-rfo_hit : 4759143
L1D-rfo_miss : 82055
L1D-prefetch_access : 6675586
L1D-prefetch_hit : 6206178
L1D-prefetch_miss : 469408
L1D-writeback_access : 0
L1D-writeback_hit : 0
L1D-writeback_miss : 0
L1D-prefetch_requested : 6950464
L1D-prefetch_issued : 6859328
L1D-prefetch_useful : 138897
L1D-prefetch_useless : 330507
L1D-Avg_miss_latency : 42.0599

L1I TOTAL     ACCESS:   15862414  HIT:   12657332  MISS:    3205082
L1I LOAD      ACCESS:    8892072  HIT:    8483168  MISS:     408904
L1I RFO       ACCESS:          0  HIT:          0  MISS:          0
L1I PREFETCH  ACCESS:    6970342  HIT:    4174164  MISS:    2796178
L1I WRITEBACK ACCESS:          0  HIT:          0  MISS:          0
L1I PREFETCH  REQUESTED:    7894729  ISSUED:    7428578  USEFUL:    1618764  USELESS:    1177393
L1I AVERAGE MISS LATENCY: 24.6565 cycles
L1I

SHEET
L1I-total_access : 15862414
L1I-total_hit : 12657332
L1I-total_miss : 3205082
L1I-load_access : 8892072
L1I-load_hit : 8483168
L1I-load_miss : 408904
L1I-rfo_access : 0
L1I-rfo_hit : 0
L1I-rfo_miss : 0
L1I-prefetch_access : 6970342
L1I-prefetch_hit : 4174164
L1I-prefetch_miss : 2796178
L1I-writeback_access : 0
L1I-writeback_hit : 0
L1I-writeback_miss : 0
L1I-prefetch_requested : 7894729
L1I-prefetch_issued : 7428578
L1I-prefetch_useful : 1618764
L1I-prefetch_useless : 1177393
L1I-Avg_miss_latency : 24.6565

L2C TOTAL     ACCESS:    5557658  HIT:    4384418  MISS:    1173240
L2C LOAD      ACCESS:     775297  HIT:     495670  MISS:     279627
L2C RFO       ACCESS:      80202  HIT:      33355  MISS:      46847
L2C PREFETCH  ACCESS:    4434001  HIT:    3589394  MISS:     844607
L2C WRITEBACK ACCESS:     268158  HIT:     265999  MISS:       2159
L2C PREFETCH  REQUESTED:    4916162  ISSUED:    4908970  USEFUL:      77673  USELESS:     766380
L2C AVERAGE MISS LATENCY: 53.1568 cycles
L2C

SHEET
L2C-total_access : 5557658
L2C-total_hit : 4384418
L2C-total_miss : 1173240
L2C-load_access : 775297
L2C-load_hit : 495670
L2C-load_miss : 279627
L2C-rfo_access : 80202
L2C-rfo_hit : 33355
L2C-rfo_miss : 46847
L2C-prefetch_access : 4434001
L2C-prefetch_hit : 3589394
L2C-prefetch_miss : 844607
L2C-writeback_access : 268158
L2C-writeback_hit : 265999
L2C-writeback_miss : 2159
L2C-prefetch_requested : 4916162
L2C-prefetch_issued : 4908970
L2C-prefetch_useful : 77673
L2C-prefetch_useless : 766380
L2C-Avg_miss_latency : 53.1568

LLC TOTAL     ACCESS:    2496614  HIT:    2289210  MISS:     207404
LLC LOAD      ACCESS:     279405  HIT:     247806  MISS:      31599
LLC RFO       ACCESS:      46836  HIT:      33051  MISS:      13785
LLC PREFETCH  ACCESS:    2014076  HIT:    1852485  MISS:     161591
LLC WRITEBACK ACCESS:     156297  HIT:     155868  MISS:        429
LLC PREFETCH  REQUESTED:          0  ISSUED:          0  USEFUL:      17832  USELESS:     140833
LLC AVERAGE MISS LATENCY: 178.043 cycles
LLC

SHEET
LLC-total_access : 2496614
LLC-total_hit : 2289210
LLC-total_miss : 207404
LLC-load_access : 279405
LLC-load_hit : 247806
LLC-load_miss : 31599
LLC-rfo_access : 46836
LLC-rfo_hit : 33051
LLC-rfo_miss : 13785
LLC-prefetch_access : 2014076
LLC-prefetch_hit : 1852485
LLC-prefetch_miss : 161591
LLC-writeback_access : 156297
LLC-writeback_hit : 155868
LLC-writeback_miss : 429
LLC-prefetch_requested : 0
LLC-prefetch_issued : 0
LLC-prefetch_useful : 17832
LLC-prefetch_useless : 140833
LLC-Avg_miss_latency : 178.043

Major fault: 0 Minor fault: 7035



Printing Logs
statHeadFound: 489379
statHeadMissing: 545318
statStreamBufferHit: 11278809
statPrefetchEntryFound: 4087521
statCompactorMatch: 10503365
statStreamTrackerLookup: 12313506
statRecord: 1810141
statGetPointer: 1034697
statEnqueuePrefetch: 14460137
statPrefetchQueueIsFull: 63976
StreamBufferHitRate: 0.915971
Regions' size: 7810
next_region_correct: 1449280
next_region_wrong: 353033
next_region_correct_prediction: 0.804122
statStreamBufferLookups: 886572432
statL1iLookups: 115681096
statCompactorLookups: 443286216
morteza: start

SHEET
mana_table_access_counter : 2921138
mana_table_multiple_access_counter : 3545194
hobp_table_access_counter : 19695151
sab_access_counter : 15366330
srq_access_counter : 12622303

morteza: end
CPU 0 L1D next line prefetcher final stats

DRAM Statistics
 CHANNEL 0
 RQ ROW_BUFFER_HIT:      38341  ROW_BUFFER_MISS:     168614
 DBUS_CONGESTED:      92355
 WQ ROW_BUFFER_HIT:      12324  ROW_BUFFER_MISS:      50719  FULL:          0

 AVG_CONGESTED_CYCLE: 5

CPU 0 Branch Prediction Accuracy: 97.5565% MPKI: 4.59006 Average ROB Occupancy at Mispredict: 54.8524

Branch types
NOT_BRANCH: 40607196 81.2144%
BRANCH_DIRECT_JUMP: 451601 0.903202%
BRANCH_INDIRECT: 151580 0.30316%
BRANCH_CONDITIONAL: 7041635 14.0833%
BRANCH_DIRECT_CALL: 647826 1.29565%
BRANCH_INDIRECT_CALL: 211373 0.422746%
BRANCH_RETURN: 888438 1.77688%
BRANCH_OTHER: 0 0%

