Initialize SIGNATURE TABLE
ST_SET: 1
ST_WAY: 256
ST_TAG_BIT: 16
ST_TAG_MASK: ffff

Initialize PATTERN TABLE
PT_SET: 512
PT_WAY: 4
SIG_DELTA_BIT: 7
C_SIG_BIT: 4
C_DELTA_BIT: 4

Initialize PREFETCH FILTER
FILTER_SET: 1024
MANA initialize 
tds: 2 tdm: 4
size MANA SINGLE: 74 KB
size MANA NULTIPLE: 43 KB
size HOBPT: 5 KB
size SRQ: 0.14502 KB
size SABs: 0.290039 KB
size prefetch queue: 0.453125 KB
total: 122.888 KB

*** ChampSim Multicore Out-of-Order Simulator ***

Warmup Instructions: 50000000
Simulation Instructions: 50000000
Number of CPUs: 1
LLC sets: 2048
LLC ways: 16
Off-chip DRAM Size: 4096 MB Channels: 1 Width: 64-bit Data Rate: 3200 MT/s

CPU 0 runs /home/mbaradaran/ChampSim/dpc3_traces/server_035.champsimtrace.xz
CPU 0 L1D next line prefetcher
Heartbeat CPU 0 instructions: 10000001 cycles: 3339314 heartbeat IPC: 2.99463 cumulative IPC: 2.99463 (Simulation time: 0 hr 1 min 59 sec) 
Heartbeat CPU 0 instructions: 20000000 cycles: 6677902 heartbeat IPC: 2.99528 cumulative IPC: 2.99495 (Simulation time: 0 hr 3 min 58 sec) 
Heartbeat CPU 0 instructions: 30000000 cycles: 10013026 heartbeat IPC: 2.99839 cumulative IPC: 2.9961 (Simulation time: 0 hr 5 min 56 sec) 
Heartbeat CPU 0 instructions: 40000000 cycles: 13353001 heartbeat IPC: 2.99403 cumulative IPC: 2.99558 (Simulation time: 0 hr 7 min 52 sec) 
Heartbeat CPU 0 instructions: 50000003 cycles: 16689739 heartbeat IPC: 2.99694 cumulative IPC: 2.99585 (Simulation time: 0 hr 9 min 47 sec) 

Warmup complete CPU 0 instructions: 50000003 cycles: 16689739 (Simulation time: 0 hr 9 min 47 sec) 

Heartbeat CPU 0 instructions: 60000001 cycles: 25205274 heartbeat IPC: 1.17432 cumulative IPC: 1.17432 (Simulation time: 0 hr 11 min 46 sec) 
Heartbeat CPU 0 instructions: 70000003 cycles: 33356808 heartbeat IPC: 1.22676 cumulative IPC: 1.19997 (Simulation time: 0 hr 13 min 40 sec) 
Heartbeat CPU 0 instructions: 80000000 cycles: 41615333 heartbeat IPC: 1.21087 cumulative IPC: 1.20358 (Simulation time: 0 hr 15 min 45 sec) 
Heartbeat CPU 0 instructions: 90000002 cycles: 49249900 heartbeat IPC: 1.30983 cumulative IPC: 1.2285 (Simulation time: 0 hr 17 min 47 sec) 
Heartbeat CPU 0 instructions: 100000002 cycles: 57529810 heartbeat IPC: 1.20774 cumulative IPC: 1.22429 (Simulation time: 0 hr 19 min 43 sec) 
Finished CPU 0 instructions: 50000003 cycles: 40840072 cumulative IPC: 1.22429 (Simulation time: 0 hr 19 min 43 sec) 

ChampSim completed all CPUs

Region of Interest Statistics

CPU 0 cumulative IPC: 1.22429 instructions: 50000003 cycles: 40840072

SHEET
IPC : 1.22429

L1D TOTAL     ACCESS:   18333033  HIT:   16828737  MISS:    1504296
L1D LOAD      ACCESS:    6194906  HIT:    5493077  MISS:     701829
L1D RFO       ACCESS:    6158411  HIT:    6005986  MISS:     152425
L1D PREFETCH  ACCESS:    5979716  HIT:    5329674  MISS:     650042
L1D WRITEBACK ACCESS:          0  HIT:          0  MISS:          0
L1D PREFETCH  REQUESTED:    6239925  ISSUED:    6143892  USEFUL:     138181  USELESS:     511866
L1D AVERAGE MISS LATENCY: 43.2726 cycles
L1D

SHEET
L1D-total_access : 18333033
L1D-total_hit : 16828737
L1D-total_miss : 1504296
L1D-load_access : 6194906
L1D-load_hit : 5493077
L1D-load_miss : 701829
L1D-rfo_access : 6158411
L1D-rfo_hit : 6005986
L1D-rfo_miss : 152425
L1D-prefetch_access : 5979716
L1D-prefetch_hit : 5329674
L1D-prefetch_miss : 650042
L1D-writeback_access : 0
L1D-writeback_hit : 0
L1D-writeback_miss : 0
L1D-prefetch_requested : 6239925
L1D-prefetch_issued : 6143892
L1D-prefetch_useful : 138181
L1D-prefetch_useless : 511866
L1D-Avg_miss_latency : 43.2726

L1I TOTAL     ACCESS:   17762980  HIT:   12763955  MISS:    4999025
L1I LOAD      ACCESS:    9652271  HIT:    9120553  MISS:     531718
L1I RFO       ACCESS:          0  HIT:          0  MISS:          0
L1I PREFETCH  ACCESS:    8110709  HIT:    3643402  MISS:    4467307
L1I WRITEBACK ACCESS:          0  HIT:          0  MISS:          0
L1I PREFETCH  REQUESTED:    8741126  ISSUED:    8697931  USEFUL:    3354468  USELESS:    1112794
L1I AVERAGE MISS LATENCY: 15.4406 cycles
L1I

SHEET
L1I-total_access : 17762980
L1I-total_hit : 12763955
L1I-total_miss : 4999025
L1I-load_access : 9652271
L1I-load_hit : 9120553
L1I-load_miss : 531718
L1I-rfo_access : 0
L1I-rfo_hit : 0
L1I-rfo_miss : 0
L1I-prefetch_access : 8110709
L1I-prefetch_hit : 3643402
L1I-prefetch_miss : 4467307
L1I-writeback_access : 0
L1I-writeback_hit : 0
L1I-writeback_miss : 0
L1I-prefetch_requested : 8741126
L1I-prefetch_issued : 8697931
L1I-prefetch_useful : 3354468
L1I-prefetch_useless : 1112794
L1I-Avg_miss_latency : 15.4406

L2C TOTAL     ACCESS:    8569253  HIT:    8273337  MISS:     295916
L2C LOAD      ACCESS:    1075335  HIT:     951501  MISS:     123834
L2C RFO       ACCESS:     150640  HIT:     130127  MISS:      20513
L2C PREFETCH  ACCESS:    6978250  HIT:    6827862  MISS:     150388
L2C WRITEBACK ACCESS:     365028  HIT:     363847  MISS:       1181
L2C PREFETCH  REQUESTED:    8084927  ISSUED:    8069865  USEFUL:      15876  USELESS:     133908
L2C AVERAGE MISS LATENCY: 160.163 cycles
L2C

SHEET
L2C-total_access : 8569253
L2C-total_hit : 8273337
L2C-total_miss : 295916
L2C-load_access : 1075335
L2C-load_hit : 951501
L2C-load_miss : 123834
L2C-rfo_access : 150640
L2C-rfo_hit : 130127
L2C-rfo_miss : 20513
L2C-prefetch_access : 6978250
L2C-prefetch_hit : 6827862
L2C-prefetch_miss : 150388
L2C-writeback_access : 365028
L2C-writeback_hit : 363847
L2C-writeback_miss : 1181
L2C-prefetch_requested : 8084927
L2C-prefetch_issued : 8069865
L2C-prefetch_useful : 15876
L2C-prefetch_useless : 133908
L2C-Avg_miss_latency : 160.163

LLC TOTAL     ACCESS:    2585868  HIT:    2297736  MISS:     288132
LLC LOAD      ACCESS:     123495  HIT:      42399  MISS:      81096
LLC RFO       ACCESS:      20496  HIT:      10385  MISS:      10111
LLC PREFETCH  ACCESS:    2341192  HIT:    2145382  MISS:     195810
LLC WRITEBACK ACCESS:     100685  HIT:      99570  MISS:       1115
LLC PREFETCH  REQUESTED:          0  ISSUED:          0  USEFUL:      34953  USELESS:     159643
LLC AVERAGE MISS LATENCY: 216.586 cycles
LLC

SHEET
LLC-total_access : 2585868
LLC-total_hit : 2297736
LLC-total_miss : 288132
LLC-load_access : 123495
LLC-load_hit : 42399
LLC-load_miss : 81096
LLC-rfo_access : 20496
LLC-rfo_hit : 10385
LLC-rfo_miss : 10111
LLC-prefetch_access : 2341192
LLC-prefetch_hit : 2145382
LLC-prefetch_miss : 195810
LLC-writeback_access : 100685
LLC-writeback_hit : 99570
LLC-writeback_miss : 1115
LLC-prefetch_requested : 0
LLC-prefetch_issued : 0
LLC-prefetch_useful : 34953
LLC-prefetch_useless : 159643
LLC-Avg_miss_latency : 216.586

Major fault: 0 Minor fault: 5603



Printing Logs
statHeadFound: 504601
statHeadMissing: 515891
statStreamBufferHit: 14072550
statPrefetchEntryFound: 5685039
statCompactorMatch: 12020862
statStreamTrackerLookup: 15093042
statRecord: 3072180
statGetPointer: 1020492
statEnqueuePrefetch: 17341429
statPrefetchQueueIsFull: 2399
StreamBufferHitRate: 0.932387
Regions' size: 1358
next_region_correct: 2370350
next_region_wrong: 700454
next_region_correct_prediction: 0.771899
statStreamBufferLookups: 1086699024
statL1iLookups: 138731432
statCompactorLookups: 543349512
morteza: start

SHEET
mana_table_access_counter : 5676454
mana_table_multiple_access_counter : 3589373
hobp_table_access_counter : 26142747
sab_access_counter : 19757589
srq_access_counter : 16694486

morteza: end
CPU 0 L1D next line prefetcher final stats

DRAM Statistics
 CHANNEL 0
 RQ ROW_BUFFER_HIT:      75983  ROW_BUFFER_MISS:     211028
 DBUS_CONGESTED:     168927
 WQ ROW_BUFFER_HIT:      17183  ROW_BUFFER_MISS:      74063  FULL:          0

 AVG_CONGESTED_CYCLE: 5

CPU 0 Branch Prediction Accuracy: 99.9115% MPKI: 0.17232 Average ROB Occupancy at Mispredict: 194.657

Branch types
NOT_BRANCH: 40267291 80.5346%
BRANCH_DIRECT_JUMP: 771900 1.5438%
BRANCH_INDIRECT: 108179 0.216358%
BRANCH_CONDITIONAL: 6307179 12.6144%
BRANCH_DIRECT_CALL: 1060894 2.12179%
BRANCH_INDIRECT_CALL: 211719 0.423438%
BRANCH_RETURN: 1272635 2.54527%
BRANCH_OTHER: 0 0%

