Initialize SIGNATURE TABLE
ST_SET: 1
ST_WAY: 256
ST_TAG_BIT: 16
ST_TAG_MASK: ffff

Initialize PATTERN TABLE
PT_SET: 512
PT_WAY: 4
SIG_DELTA_BIT: 7
C_SIG_BIT: 4
C_DELTA_BIT: 4

Initialize PREFETCH FILTER
FILTER_SET: 1024
MANA initialize 
tds: 2 tdm: 4
size MANA SINGLE: 74 KB
size MANA NULTIPLE: 43 KB
size HOBPT: 5 KB
size SRQ: 0.14502 KB
size SABs: 0.290039 KB
size prefetch queue: 0.453125 KB
total: 122.888 KB

*** ChampSim Multicore Out-of-Order Simulator ***

Warmup Instructions: 50000000
Simulation Instructions: 50000000
Number of CPUs: 1
LLC sets: 2048
LLC ways: 16
Off-chip DRAM Size: 4096 MB Channels: 1 Width: 64-bit Data Rate: 3200 MT/s

CPU 0 runs /home/mbaradaran/ChampSim/dpc3_traces/server_016.champsimtrace.xz
CPU 0 L1D next line prefetcher
Heartbeat CPU 0 instructions: 10000000 cycles: 3507963 heartbeat IPC: 2.85066 cumulative IPC: 2.85066 (Simulation time: 0 hr 1 min 51 sec) 
Heartbeat CPU 0 instructions: 20000000 cycles: 7016547 heartbeat IPC: 2.85015 cumulative IPC: 2.8504 (Simulation time: 0 hr 3 min 42 sec) 
Heartbeat CPU 0 instructions: 30000001 cycles: 10520716 heartbeat IPC: 2.85374 cumulative IPC: 2.85152 (Simulation time: 0 hr 5 min 43 sec) 
Heartbeat CPU 0 instructions: 40000000 cycles: 13821223 heartbeat IPC: 3.02984 cumulative IPC: 2.8941 (Simulation time: 0 hr 6 min 46 sec) 
Heartbeat CPU 0 instructions: 50000002 cycles: 17056688 heartbeat IPC: 3.09075 cumulative IPC: 2.9314 (Simulation time: 0 hr 7 min 29 sec) 

Warmup complete CPU 0 instructions: 50000002 cycles: 17056688 (Simulation time: 0 hr 7 min 29 sec) 

Heartbeat CPU 0 instructions: 60000001 cycles: 25061292 heartbeat IPC: 1.24928 cumulative IPC: 1.24928 (Simulation time: 0 hr 8 min 20 sec) 
Heartbeat CPU 0 instructions: 70000001 cycles: 32258255 heartbeat IPC: 1.38947 cumulative IPC: 1.31565 (Simulation time: 0 hr 10 min 12 sec) 
Heartbeat CPU 0 instructions: 80000000 cycles: 39566989 heartbeat IPC: 1.36823 cumulative IPC: 1.33272 (Simulation time: 0 hr 11 min 58 sec) 
Heartbeat CPU 0 instructions: 90000000 cycles: 46658056 heartbeat IPC: 1.41023 cumulative IPC: 1.35129 (Simulation time: 0 hr 13 min 50 sec) 
Heartbeat CPU 0 instructions: 100000000 cycles: 53877674 heartbeat IPC: 1.38511 cumulative IPC: 1.35792 (Simulation time: 0 hr 15 min 43 sec) 
Finished CPU 0 instructions: 50000001 cycles: 36820987 cumulative IPC: 1.35792 (Simulation time: 0 hr 15 min 43 sec) 

ChampSim completed all CPUs

Region of Interest Statistics

CPU 0 cumulative IPC: 1.35792 instructions: 50000001 cycles: 36820987

SHEET
IPC : 1.35792

L1D TOTAL     ACCESS:   18358487  HIT:   17090781  MISS:    1267706
L1D LOAD      ACCESS:    6719159  HIT:    6145678  MISS:     573481
L1D RFO       ACCESS:    5200593  HIT:    4978377  MISS:     222216
L1D PREFETCH  ACCESS:    6438735  HIT:    5966726  MISS:     472009
L1D WRITEBACK ACCESS:          0  HIT:          0  MISS:          0
L1D PREFETCH  REQUESTED:    6763411  ISSUED:    6662032  USEFUL:     112835  USELESS:     359192
L1D AVERAGE MISS LATENCY: 23.9175 cycles
L1D

SHEET
L1D-total_access : 18358487
L1D-total_hit : 17090781
L1D-total_miss : 1267706
L1D-load_access : 6719159
L1D-load_hit : 6145678
L1D-load_miss : 573481
L1D-rfo_access : 5200593
L1D-rfo_hit : 4978377
L1D-rfo_miss : 222216
L1D-prefetch_access : 6438735
L1D-prefetch_hit : 5966726
L1D-prefetch_miss : 472009
L1D-writeback_access : 0
L1D-writeback_hit : 0
L1D-writeback_miss : 0
L1D-prefetch_requested : 6763411
L1D-prefetch_issued : 6662032
L1D-prefetch_useful : 112835
L1D-prefetch_useless : 359192
L1D-Avg_miss_latency : 23.9175

L1I TOTAL     ACCESS:   16439491  HIT:   12210448  MISS:    4229043
L1I LOAD      ACCESS:    9772325  HIT:    9182621  MISS:     589704
L1I RFO       ACCESS:          0  HIT:          0  MISS:          0
L1I PREFETCH  ACCESS:    6667166  HIT:    3027827  MISS:    3639339
L1I WRITEBACK ACCESS:          0  HIT:          0  MISS:          0
L1I PREFETCH  REQUESTED:    7459281  ISSUED:    7315012  USEFUL:    1984716  USELESS:    1654617
L1I AVERAGE MISS LATENCY: 16.3902 cycles
L1I

SHEET
L1I-total_access : 16439491
L1I-total_hit : 12210448
L1I-total_miss : 4229043
L1I-load_access : 9772325
L1I-load_hit : 9182621
L1I-load_miss : 589704
L1I-rfo_access : 0
L1I-rfo_hit : 0
L1I-rfo_miss : 0
L1I-prefetch_access : 6667166
L1I-prefetch_hit : 3027827
L1I-prefetch_miss : 3639339
L1I-writeback_access : 0
L1I-writeback_hit : 0
L1I-writeback_miss : 0
L1I-prefetch_requested : 7459281
L1I-prefetch_issued : 7315012
L1I-prefetch_useful : 1984716
L1I-prefetch_useless : 1654617
L1I-Avg_miss_latency : 16.3902

L2C TOTAL     ACCESS:    7446625  HIT:    6867827  MISS:     578798
L2C LOAD      ACCESS:     953779  HIT:     818280  MISS:     135499
L2C RFO       ACCESS:     220537  HIT:     148014  MISS:      72523
L2C PREFETCH  ACCESS:    5844083  HIT:    5476160  MISS:     367923
L2C WRITEBACK ACCESS:     428226  HIT:     425373  MISS:       2853
L2C PREFETCH  REQUESTED:    6226839  ISSUED:    6216292  USEFUL:      36613  USELESS:     330680
L2C AVERAGE MISS LATENCY: 40.8476 cycles
L2C

SHEET
L2C-total_access : 7446625
L2C-total_hit : 6867827
L2C-total_miss : 578798
L2C-load_access : 953779
L2C-load_hit : 818280
L2C-load_miss : 135499
L2C-rfo_access : 220537
L2C-rfo_hit : 148014
L2C-rfo_miss : 72523
L2C-prefetch_access : 5844083
L2C-prefetch_hit : 5476160
L2C-prefetch_miss : 367923
L2C-writeback_access : 428226
L2C-writeback_hit : 425373
L2C-writeback_miss : 2853
L2C-prefetch_requested : 6226839
L2C-prefetch_issued : 6216292
L2C-prefetch_useful : 36613
L2C-prefetch_useless : 330680
L2C-Avg_miss_latency : 40.8476

LLC TOTAL     ACCESS:    2087999  HIT:    2052727  MISS:      35272
LLC LOAD      ACCESS:     135387  HIT:     131233  MISS:       4154
LLC RFO       ACCESS:      72522  HIT:      59098  MISS:      13424
LLC PREFETCH  ACCESS:    1760631  HIT:    1743055  MISS:      17576
LLC WRITEBACK ACCESS:     119459  HIT:     119341  MISS:        118
LLC PREFETCH  REQUESTED:          0  ISSUED:          0  USEFUL:       1866  USELESS:      15702
LLC AVERAGE MISS LATENCY: 178.258 cycles
LLC

SHEET
LLC-total_access : 2087999
LLC-total_hit : 2052727
LLC-total_miss : 35272
LLC-load_access : 135387
LLC-load_hit : 131233
LLC-load_miss : 4154
LLC-rfo_access : 72522
LLC-rfo_hit : 59098
LLC-rfo_miss : 13424
LLC-prefetch_access : 1760631
LLC-prefetch_hit : 1743055
LLC-prefetch_miss : 17576
LLC-writeback_access : 119459
LLC-writeback_hit : 119341
LLC-writeback_miss : 118
LLC-prefetch_requested : 0
LLC-prefetch_issued : 0
LLC-prefetch_useful : 1866
LLC-prefetch_useless : 15702
LLC-Avg_miss_latency : 178.258

Major fault: 0 Minor fault: 2427



Printing Logs
statHeadFound: 537739
statHeadMissing: 791006
statStreamBufferHit: 13430545
statPrefetchEntryFound: 4316512
statCompactorMatch: 13029496
statStreamTrackerLookup: 14759290
statRecord: 1729794
statGetPointer: 1328745
statEnqueuePrefetch: 13037162
statPrefetchQueueIsFull: 22527
StreamBufferHitRate: 0.909972
Regions' size: 2271
next_region_correct: 1168314
next_region_wrong: 559191
next_region_correct_prediction: 0.676301
statStreamBufferLookups: 1062668880
statL1iLookups: 104297296
statCompactorLookups: 531334440
morteza: start

SHEET
mana_table_access_counter : 3170168
mana_table_multiple_access_counter : 3439800
hobp_table_access_counter : 21893825
sab_access_counter : 17747057
srq_access_counter : 13306986

morteza: end
CPU 0 L1D next line prefetcher final stats

DRAM Statistics
 CHANNEL 0
 RQ ROW_BUFFER_HIT:      11214  ROW_BUFFER_MISS:      23938
 DBUS_CONGESTED:      23644
 WQ ROW_BUFFER_HIT:       1564  ROW_BUFFER_MISS:      14152  FULL:          0

 AVG_CONGESTED_CYCLE: 6

CPU 0 Branch Prediction Accuracy: 99.7225% MPKI: 0.50376 Average ROB Occupancy at Mispredict: 114.256

Branch types
NOT_BRANCH: 40923882 81.8478%
BRANCH_DIRECT_JUMP: 487045 0.97409%
BRANCH_INDIRECT: 169158 0.338316%
BRANCH_CONDITIONAL: 6640823 13.2816%
BRANCH_DIRECT_CALL: 755586 1.51117%
BRANCH_INDIRECT_CALL: 133962 0.267924%
BRANCH_RETURN: 889566 1.77913%
BRANCH_OTHER: 0 0%

