Initialize SIGNATURE TABLE
ST_SET: 1
ST_WAY: 256
ST_TAG_BIT: 16
ST_TAG_MASK: ffff

Initialize PATTERN TABLE
PT_SET: 512
PT_WAY: 4
SIG_DELTA_BIT: 7
C_SIG_BIT: 4
C_DELTA_BIT: 4

Initialize PREFETCH FILTER
FILTER_SET: 1024
MANA initialize 
tds: 2 tdm: 4
size MANA SINGLE: 74 KB
size MANA NULTIPLE: 43 KB
size HOBPT: 5 KB
size SRQ: 0.14502 KB
size SABs: 0.290039 KB
size prefetch queue: 0.453125 KB
total: 122.888 KB

*** ChampSim Multicore Out-of-Order Simulator ***

Warmup Instructions: 50000000
Simulation Instructions: 50000000
Number of CPUs: 1
LLC sets: 2048
LLC ways: 16
Off-chip DRAM Size: 4096 MB Channels: 1 Width: 64-bit Data Rate: 3200 MT/s

CPU 0 runs /home/mbaradaran/ChampSim/dpc3_traces/server_024.champsimtrace.xz
CPU 0 L1D next line prefetcher
Heartbeat CPU 0 instructions: 10000000 cycles: 3512179 heartbeat IPC: 2.84724 cumulative IPC: 2.84724 (Simulation time: 0 hr 1 min 48 sec) 
Heartbeat CPU 0 instructions: 20000002 cycles: 7017157 heartbeat IPC: 2.85309 cumulative IPC: 2.85016 (Simulation time: 0 hr 3 min 46 sec) 
Heartbeat CPU 0 instructions: 30000000 cycles: 10532893 heartbeat IPC: 2.84435 cumulative IPC: 2.84822 (Simulation time: 0 hr 5 min 44 sec) 
Heartbeat CPU 0 instructions: 40000000 cycles: 14045536 heartbeat IPC: 2.84686 cumulative IPC: 2.84788 (Simulation time: 0 hr 7 min 39 sec) 
Heartbeat CPU 0 instructions: 50000001 cycles: 17547538 heartbeat IPC: 2.85551 cumulative IPC: 2.8494 (Simulation time: 0 hr 9 min 33 sec) 

Warmup complete CPU 0 instructions: 50000001 cycles: 17547538 (Simulation time: 0 hr 9 min 33 sec) 

Heartbeat CPU 0 instructions: 60000003 cycles: 24739447 heartbeat IPC: 1.39045 cumulative IPC: 1.39045 (Simulation time: 0 hr 11 min 15 sec) 
Heartbeat CPU 0 instructions: 70000000 cycles: 31963987 heartbeat IPC: 1.38417 cumulative IPC: 1.3873 (Simulation time: 0 hr 13 min 7 sec) 
*** Reached end of trace for Core: 0 Repeating trace: /home/mbaradaran/ChampSim/dpc3_traces/server_024.champsimtrace.xz
Heartbeat CPU 0 instructions: 80000001 cycles: 39160958 heartbeat IPC: 1.38947 cumulative IPC: 1.38803 (Simulation time: 0 hr 14 min 56 sec) 
Heartbeat CPU 0 instructions: 90000003 cycles: 46413327 heartbeat IPC: 1.37886 cumulative IPC: 1.38572 (Simulation time: 0 hr 16 min 47 sec) 
Heartbeat CPU 0 instructions: 100000002 cycles: 53631873 heartbeat IPC: 1.38532 cumulative IPC: 1.38564 (Simulation time: 0 hr 18 min 37 sec) 
Finished CPU 0 instructions: 50000001 cycles: 36084335 cumulative IPC: 1.38564 (Simulation time: 0 hr 18 min 37 sec) 

ChampSim completed all CPUs

Region of Interest Statistics

CPU 0 cumulative IPC: 1.38564 instructions: 50000001 cycles: 36084335

SHEET
IPC : 1.38564

L1D TOTAL     ACCESS:   20216524  HIT:   18698358  MISS:    1518166
L1D LOAD      ACCESS:    7191620  HIT:    6510629  MISS:     680991
L1D RFO       ACCESS:    6163291  HIT:    5888991  MISS:     274300
L1D PREFETCH  ACCESS:    6861613  HIT:    6298738  MISS:     562875
L1D WRITEBACK ACCESS:          0  HIT:          0  MISS:          0
L1D PREFETCH  REQUESTED:    7245262  ISSUED:    7127525  USEFUL:     135275  USELESS:     427606
L1D AVERAGE MISS LATENCY: 25.0196 cycles
L1D

SHEET
L1D-total_access : 20216524
L1D-total_hit : 18698358
L1D-total_miss : 1518166
L1D-load_access : 7191620
L1D-load_hit : 6510629
L1D-load_miss : 680991
L1D-rfo_access : 6163291
L1D-rfo_hit : 5888991
L1D-rfo_miss : 274300
L1D-prefetch_access : 6861613
L1D-prefetch_hit : 6298738
L1D-prefetch_miss : 562875
L1D-writeback_access : 0
L1D-writeback_hit : 0
L1D-writeback_miss : 0
L1D-prefetch_requested : 7245262
L1D-prefetch_issued : 7127525
L1D-prefetch_useful : 135275
L1D-prefetch_useless : 427606
L1D-Avg_miss_latency : 25.0196

L1I TOTAL     ACCESS:   17419406  HIT:   12280412  MISS:    5138994
L1I LOAD      ACCESS:    9216294  HIT:    8494638  MISS:     721656
L1I RFO       ACCESS:          0  HIT:          0  MISS:          0
L1I PREFETCH  ACCESS:    8203112  HIT:    3785774  MISS:    4417338
L1I WRITEBACK ACCESS:          0  HIT:          0  MISS:          0
L1I PREFETCH  REQUESTED:    9222359  ISSUED:    9020401  USEFUL:    2400017  USELESS:    2017328
L1I AVERAGE MISS LATENCY: 16.3097 cycles
L1I

SHEET
L1I-total_access : 17419406
L1I-total_hit : 12280412
L1I-total_miss : 5138994
L1I-load_access : 9216294
L1I-load_hit : 8494638
L1I-load_miss : 721656
L1I-rfo_access : 0
L1I-rfo_hit : 0
L1I-rfo_miss : 0
L1I-prefetch_access : 8203112
L1I-prefetch_hit : 3785774
L1I-prefetch_miss : 4417338
L1I-writeback_access : 0
L1I-writeback_hit : 0
L1I-writeback_miss : 0
L1I-prefetch_requested : 9222359
L1I-prefetch_issued : 9020401
L1I-prefetch_useful : 2400017
L1I-prefetch_useless : 2017328
L1I-Avg_miss_latency : 16.3097

L2C TOTAL     ACCESS:    9027240  HIT:    8351260  MISS:     675980
L2C LOAD      ACCESS:    1152401  HIT:     996660  MISS:     155741
L2C RFO       ACCESS:     272433  HIT:     194690  MISS:      77743
L2C PREFETCH  ACCESS:    7082218  HIT:    6643565  MISS:     438653
L2C WRITEBACK ACCESS:     520188  HIT:     516345  MISS:       3843
L2C PREFETCH  REQUESTED:    7876585  ISSUED:    7861249  USEFUL:      43032  USELESS:     394295
L2C AVERAGE MISS LATENCY: 44.5486 cycles
L2C

SHEET
L2C-total_access : 9027240
L2C-total_hit : 8351260
L2C-total_miss : 675980
L2C-load_access : 1152401
L2C-load_hit : 996660
L2C-load_miss : 155741
L2C-rfo_access : 272433
L2C-rfo_hit : 194690
L2C-rfo_miss : 77743
L2C-prefetch_access : 7082218
L2C-prefetch_hit : 6643565
L2C-prefetch_miss : 438653
L2C-writeback_access : 520188
L2C-writeback_hit : 516345
L2C-writeback_miss : 3843
L2C-prefetch_requested : 7876585
L2C-prefetch_issued : 7861249
L2C-prefetch_useful : 43032
L2C-prefetch_useless : 394295
L2C-Avg_miss_latency : 44.5486

LLC TOTAL     ACCESS:    2612916  HIT:    2562925  MISS:      49991
LLC LOAD      ACCESS:     155508  HIT:     150118  MISS:       5390
LLC RFO       ACCESS:      77742  HIT:      55788  MISS:      21954
LLC PREFETCH  ACCESS:    2251173  HIT:    2228798  MISS:      22375
LLC WRITEBACK ACCESS:     128493  HIT:     128221  MISS:        272
LLC PREFETCH  REQUESTED:          0  ISSUED:          0  USEFUL:       2266  USELESS:      20268
LLC AVERAGE MISS LATENCY: 201.474 cycles
LLC

SHEET
LLC-total_access : 2612916
LLC-total_hit : 2562925
LLC-total_miss : 49991
LLC-load_access : 155508
LLC-load_hit : 150118
LLC-load_miss : 5390
LLC-rfo_access : 77742
LLC-rfo_hit : 55788
LLC-rfo_miss : 21954
LLC-prefetch_access : 2251173
LLC-prefetch_hit : 2228798
LLC-prefetch_miss : 22375
LLC-writeback_access : 128493
LLC-writeback_hit : 128221
LLC-writeback_miss : 272
LLC-prefetch_requested : 0
LLC-prefetch_issued : 0
LLC-prefetch_useful : 2266
LLC-prefetch_useless : 20268
LLC-Avg_miss_latency : 201.474

Major fault: 0 Minor fault: 2425



Printing Logs
statHeadFound: 745034
statHeadMissing: 773225
statStreamBufferHit: 12579834
statPrefetchEntryFound: 5928607
statCompactorMatch: 11752678
statStreamTrackerLookup: 14098093
statRecord: 2345415
statGetPointer: 1518259
statEnqueuePrefetch: 17962549
statPrefetchQueueIsFull: 41520
StreamBufferHitRate: 0.892307
Regions' size: 2281
next_region_correct: 1575713
next_region_wrong: 767403
next_region_correct_prediction: 0.672486
statStreamBufferLookups: 1015062696
statL1iLookups: 143700392
statCompactorLookups: 507531348
morteza: start

SHEET
mana_table_access_counter : 4166819
mana_table_multiple_access_counter : 4897510
hobp_table_access_counter : 27504104
sab_access_counter : 18508441
srq_access_counter : 15098141

morteza: end
CPU 0 L1D next line prefetcher final stats

DRAM Statistics
 CHANNEL 0
 RQ ROW_BUFFER_HIT:      17207  ROW_BUFFER_MISS:      32502
 DBUS_CONGESTED:      38529
 WQ ROW_BUFFER_HIT:       2640  ROW_BUFFER_MISS:      22631  FULL:          0

 AVG_CONGESTED_CYCLE: 6

CPU 0 Branch Prediction Accuracy: 99.7477% MPKI: 0.46156 Average ROB Occupancy at Mispredict: 146.427

Branch types
NOT_BRANCH: 40853595 81.7072%
BRANCH_DIRECT_JUMP: 566814 1.13363%
BRANCH_INDIRECT: 197171 0.394342%
BRANCH_CONDITIONAL: 6308406 12.6168%
BRANCH_DIRECT_CALL: 876399 1.7528%
BRANCH_INDIRECT_CALL: 160491 0.320982%
BRANCH_RETURN: 1036885 2.07377%
BRANCH_OTHER: 0 0%

