Initialize SIGNATURE TABLE
ST_SET: 1
ST_WAY: 256
ST_TAG_BIT: 16
ST_TAG_MASK: ffff

Initialize PATTERN TABLE
PT_SET: 512
PT_WAY: 4
SIG_DELTA_BIT: 7
C_SIG_BIT: 4
C_DELTA_BIT: 4

Initialize PREFETCH FILTER
FILTER_SET: 1024
MANA initialize 
tds: 2 tdm: 4
size MANA SINGLE: 74 KB
size MANA NULTIPLE: 43 KB
size HOBPT: 5 KB
size SRQ: 0.14502 KB
size SABs: 0.290039 KB
size prefetch queue: 0.453125 KB
total: 122.888 KB

*** ChampSim Multicore Out-of-Order Simulator ***

Warmup Instructions: 50000000
Simulation Instructions: 50000000
Number of CPUs: 1
LLC sets: 2048
LLC ways: 16
Off-chip DRAM Size: 4096 MB Channels: 1 Width: 64-bit Data Rate: 3200 MT/s

CPU 0 runs /home/mbaradaran/ChampSim/dpc3_traces/server_030.champsimtrace.xz
CPU 0 L1D next line prefetcher
Heartbeat CPU 0 instructions: 10000003 cycles: 3521623 heartbeat IPC: 2.8396 cumulative IPC: 2.8396 (Simulation time: 0 hr 1 min 59 sec) 
Heartbeat CPU 0 instructions: 20000003 cycles: 7042659 heartbeat IPC: 2.84007 cumulative IPC: 2.83984 (Simulation time: 0 hr 3 min 57 sec) 
Heartbeat CPU 0 instructions: 30000000 cycles: 10562313 heartbeat IPC: 2.84119 cumulative IPC: 2.84029 (Simulation time: 0 hr 5 min 56 sec) 
Heartbeat CPU 0 instructions: 40000002 cycles: 14082702 heartbeat IPC: 2.8406 cumulative IPC: 2.84036 (Simulation time: 0 hr 7 min 58 sec) 
Heartbeat CPU 0 instructions: 50000002 cycles: 17606613 heartbeat IPC: 2.83776 cumulative IPC: 2.83984 (Simulation time: 0 hr 9 min 54 sec) 

Warmup complete CPU 0 instructions: 50000002 cycles: 17606613 (Simulation time: 0 hr 9 min 54 sec) 

Heartbeat CPU 0 instructions: 60000000 cycles: 24931654 heartbeat IPC: 1.36518 cumulative IPC: 1.36518 (Simulation time: 0 hr 11 min 54 sec) 
Heartbeat CPU 0 instructions: 70000000 cycles: 32290120 heartbeat IPC: 1.35898 cumulative IPC: 1.36207 (Simulation time: 0 hr 13 min 50 sec) 
Heartbeat CPU 0 instructions: 80000001 cycles: 39615180 heartbeat IPC: 1.36518 cumulative IPC: 1.36311 (Simulation time: 0 hr 15 min 46 sec) 
*** Reached end of trace for Core: 0 Repeating trace: /home/mbaradaran/ChampSim/dpc3_traces/server_030.champsimtrace.xz
Heartbeat CPU 0 instructions: 90000002 cycles: 46960204 heartbeat IPC: 1.36147 cumulative IPC: 1.3627 (Simulation time: 0 hr 17 min 35 sec) 
Heartbeat CPU 0 instructions: 100000002 cycles: 54258382 heartbeat IPC: 1.37021 cumulative IPC: 1.36419 (Simulation time: 0 hr 19 min 32 sec) 
Finished CPU 0 instructions: 50000000 cycles: 36651769 cumulative IPC: 1.36419 (Simulation time: 0 hr 19 min 32 sec) 

ChampSim completed all CPUs

Region of Interest Statistics

CPU 0 cumulative IPC: 1.36419 instructions: 50000000 cycles: 36651769

SHEET
IPC : 1.36419

L1D TOTAL     ACCESS:   19446773  HIT:   17370479  MISS:    2076294
L1D LOAD      ACCESS:    6901684  HIT:    5848490  MISS:    1053194
L1D RFO       ACCESS:    6184083  HIT:    5898286  MISS:     285797
L1D PREFETCH  ACCESS:    6361006  HIT:    5623703  MISS:     737303
L1D WRITEBACK ACCESS:          0  HIT:          0  MISS:          0
L1D PREFETCH  REQUESTED:    6954076  ISSUED:    6824536  USEFUL:     181905  USELESS:     555490
L1D AVERAGE MISS LATENCY: 19.7284 cycles
L1D

SHEET
L1D-total_access : 19446773
L1D-total_hit : 17370479
L1D-total_miss : 2076294
L1D-load_access : 6901684
L1D-load_hit : 5848490
L1D-load_miss : 1053194
L1D-rfo_access : 6184083
L1D-rfo_hit : 5898286
L1D-rfo_miss : 285797
L1D-prefetch_access : 6361006
L1D-prefetch_hit : 5623703
L1D-prefetch_miss : 737303
L1D-writeback_access : 0
L1D-writeback_hit : 0
L1D-writeback_miss : 0
L1D-prefetch_requested : 6954076
L1D-prefetch_issued : 6824536
L1D-prefetch_useful : 181905
L1D-prefetch_useless : 555490
L1D-Avg_miss_latency : 19.7284

L1I TOTAL     ACCESS:   17819982  HIT:   12468773  MISS:    5351209
L1I LOAD      ACCESS:    9656398  HIT:    8976313  MISS:     680085
L1I RFO       ACCESS:          0  HIT:          0  MISS:          0
L1I PREFETCH  ACCESS:    8163584  HIT:    3492460  MISS:    4671124
L1I WRITEBACK ACCESS:          0  HIT:          0  MISS:          0
L1I PREFETCH  REQUESTED:    9030727  ISSUED:    8874816  USEFUL:    2852628  USELESS:    1818528
L1I AVERAGE MISS LATENCY: 16.3467 cycles
L1I

SHEET
L1I-total_access : 17819982
L1I-total_hit : 12468773
L1I-total_miss : 5351209
L1I-load_access : 9656398
L1I-load_hit : 8976313
L1I-load_miss : 680085
L1I-rfo_access : 0
L1I-rfo_hit : 0
L1I-rfo_miss : 0
L1I-prefetch_access : 8163584
L1I-prefetch_hit : 3492460
L1I-prefetch_miss : 4671124
L1I-writeback_access : 0
L1I-writeback_hit : 0
L1I-writeback_miss : 0
L1I-prefetch_requested : 9030727
L1I-prefetch_issued : 8874816
L1I-prefetch_useful : 2852628
L1I-prefetch_useless : 1818528
L1I-Avg_miss_latency : 16.3467

L2C TOTAL     ACCESS:   10020870  HIT:    9256241  MISS:     764629
L2C LOAD      ACCESS:    1371361  HIT:    1168997  MISS:     202364
L2C RFO       ACCESS:     283700  HIT:     224015  MISS:      59685
L2C PREFETCH  ACCESS:    7750284  HIT:    7249927  MISS:     500357
L2C WRITEBACK ACCESS:     615525  HIT:     613302  MISS:       2223
L2C PREFETCH  REQUESTED:    8157209  ISSUED:    8138958  USEFUL:      31851  USELESS:     467798
L2C AVERAGE MISS LATENCY: 34.2116 cycles
L2C

SHEET
L2C-total_access : 10020870
L2C-total_hit : 9256241
L2C-total_miss : 764629
L2C-load_access : 1371361
L2C-load_hit : 1168997
L2C-load_miss : 202364
L2C-rfo_access : 283700
L2C-rfo_hit : 224015
L2C-rfo_miss : 59685
L2C-prefetch_access : 7750284
L2C-prefetch_hit : 7249927
L2C-prefetch_miss : 500357
L2C-writeback_access : 615525
L2C-writeback_hit : 613302
L2C-writeback_miss : 2223
L2C-prefetch_requested : 8157209
L2C-prefetch_issued : 8138958
L2C-prefetch_useful : 31851
L2C-prefetch_useless : 467798
L2C-Avg_miss_latency : 34.2116

LLC TOTAL     ACCESS:    2894948  HIT:    2876881  MISS:      18067
LLC LOAD      ACCESS:     202027  HIT:     199466  MISS:       2561
LLC RFO       ACCESS:      59681  HIT:      57961  MISS:       1720
LLC PREFETCH  ACCESS:    2506142  HIT:    2492441  MISS:      13701
LLC WRITEBACK ACCESS:     127098  HIT:     127013  MISS:         85
LLC PREFETCH  REQUESTED:          0  ISSUED:          0  USEFUL:        858  USELESS:      11400
LLC AVERAGE MISS LATENCY: 144.364 cycles
LLC

SHEET
LLC-total_access : 2894948
LLC-total_hit : 2876881
LLC-total_miss : 18067
LLC-load_access : 202027
LLC-load_hit : 199466
LLC-load_miss : 2561
LLC-rfo_access : 59681
LLC-rfo_hit : 57961
LLC-rfo_miss : 1720
LLC-prefetch_access : 2506142
LLC-prefetch_hit : 2492441
LLC-prefetch_miss : 13701
LLC-writeback_access : 127098
LLC-writeback_hit : 127013
LLC-writeback_miss : 85
LLC-prefetch_requested : 0
LLC-prefetch_issued : 0
LLC-prefetch_useful : 858
LLC-prefetch_useless : 11400
LLC-Avg_miss_latency : 144.364

Major fault: 0 Minor fault: 2104



Printing Logs
statHeadFound: 647552
statHeadMissing: 630747
statStreamBufferHit: 13228816
statPrefetchEntryFound: 5902850
statCompactorMatch: 11775082
statStreamTrackerLookup: 14507115
statRecord: 2732033
statGetPointer: 1278299
statEnqueuePrefetch: 17578298
statPrefetchQueueIsFull: 7142
StreamBufferHitRate: 0.911885
Regions' size: 2025
next_region_correct: 1925223
next_region_wrong: 804767
next_region_correct_prediction: 0.705212
statStreamBufferLookups: 1044512280
statL1iLookups: 140626384
statCompactorLookups: 522256140
morteza: start

SHEET
mana_table_access_counter : 4857758
mana_table_multiple_access_counter : 4434690
hobp_table_access_counter : 27069290
sab_access_counter : 19131666
srq_access_counter : 15950010

morteza: end
CPU 0 L1D next line prefetcher final stats

DRAM Statistics
 CHANNEL 0
 RQ ROW_BUFFER_HIT:       6124  ROW_BUFFER_MISS:      11858
 DBUS_CONGESTED:       6134
 WQ ROW_BUFFER_HIT:        162  ROW_BUFFER_MISS:       2097  FULL:          0

 AVG_CONGESTED_CYCLE: 5

CPU 0 Branch Prediction Accuracy: 99.8445% MPKI: 0.29148 Average ROB Occupancy at Mispredict: 153.296

Branch types
NOT_BRANCH: 40628040 81.2561%
BRANCH_DIRECT_JUMP: 490941 0.981882%
BRANCH_INDIRECT: 175854 0.351708%
BRANCH_CONDITIONAL: 6321411 12.6428%
BRANCH_DIRECT_CALL: 1002072 2.00414%
BRANCH_INDIRECT_CALL: 189783 0.379566%
BRANCH_RETURN: 1191851 2.3837%
BRANCH_OTHER: 0 0%

