Initialize SIGNATURE TABLE
ST_SET: 1
ST_WAY: 256
ST_TAG_BIT: 16
ST_TAG_MASK: ffff

Initialize PATTERN TABLE
PT_SET: 512
PT_WAY: 4
SIG_DELTA_BIT: 7
C_SIG_BIT: 4
C_DELTA_BIT: 4

Initialize PREFETCH FILTER
FILTER_SET: 1024
MANA initialize 
tds: 2 tdm: 4
size MANA SINGLE: 74 KB
size MANA NULTIPLE: 43 KB
size HOBPT: 5 KB
size SRQ: 0.14502 KB
size SABs: 0.290039 KB
size prefetch queue: 0.453125 KB
total: 122.888 KB

*** ChampSim Multicore Out-of-Order Simulator ***

Warmup Instructions: 50000000
Simulation Instructions: 50000000
Number of CPUs: 1
LLC sets: 2048
LLC ways: 16
Off-chip DRAM Size: 4096 MB Channels: 1 Width: 64-bit Data Rate: 3200 MT/s

CPU 0 runs /home/mbaradaran/ChampSim/dpc3_traces/server_037.champsimtrace.xz
CPU 0 L1D next line prefetcher
Heartbeat CPU 0 instructions: 10000001 cycles: 3323397 heartbeat IPC: 3.00897 cumulative IPC: 3.00897 (Simulation time: 0 hr 1 min 57 sec) 
Heartbeat CPU 0 instructions: 20000002 cycles: 6644447 heartbeat IPC: 3.0111 cumulative IPC: 3.01003 (Simulation time: 0 hr 3 min 37 sec) 
Heartbeat CPU 0 instructions: 30000003 cycles: 10013424 heartbeat IPC: 2.96826 cumulative IPC: 2.99598 (Simulation time: 0 hr 4 min 56 sec) 
Heartbeat CPU 0 instructions: 40000000 cycles: 13335878 heartbeat IPC: 3.00982 cumulative IPC: 2.99943 (Simulation time: 0 hr 6 min 12 sec) 
Heartbeat CPU 0 instructions: 50000003 cycles: 16657677 heartbeat IPC: 3.01042 cumulative IPC: 3.00162 (Simulation time: 0 hr 7 min 28 sec) 

Warmup complete CPU 0 instructions: 50000003 cycles: 16657677 (Simulation time: 0 hr 7 min 28 sec) 

Heartbeat CPU 0 instructions: 60000001 cycles: 23056977 heartbeat IPC: 1.56267 cumulative IPC: 1.56267 (Simulation time: 0 hr 8 min 49 sec) 
Heartbeat CPU 0 instructions: 70000002 cycles: 29557898 heartbeat IPC: 1.53824 cumulative IPC: 1.55036 (Simulation time: 0 hr 10 min 10 sec) 
Heartbeat CPU 0 instructions: 80000000 cycles: 35955284 heartbeat IPC: 1.56314 cumulative IPC: 1.5546 (Simulation time: 0 hr 11 min 31 sec) 
Heartbeat CPU 0 instructions: 90000002 cycles: 42357040 heartbeat IPC: 1.56207 cumulative IPC: 1.55646 (Simulation time: 0 hr 12 min 50 sec) 
*** Reached end of trace for Core: 0 Repeating trace: /home/mbaradaran/ChampSim/dpc3_traces/server_037.champsimtrace.xz
Heartbeat CPU 0 instructions: 100000000 cycles: 48776244 heartbeat IPC: 1.55783 cumulative IPC: 1.55673 (Simulation time: 0 hr 14 min 8 sec) 
Finished CPU 0 instructions: 50000001 cycles: 32118568 cumulative IPC: 1.55673 (Simulation time: 0 hr 14 min 8 sec) 

ChampSim completed all CPUs

Region of Interest Statistics

CPU 0 cumulative IPC: 1.55673 instructions: 50000001 cycles: 32118568

SHEET
IPC : 1.55673

L1D TOTAL     ACCESS:   18712308  HIT:   17734272  MISS:     978036
L1D LOAD      ACCESS:    6371183  HIT:    5880033  MISS:     491150
L1D RFO       ACCESS:    6207314  HIT:    6143121  MISS:      64193
L1D PREFETCH  ACCESS:    6133811  HIT:    5711118  MISS:     422693
L1D WRITEBACK ACCESS:          0  HIT:          0  MISS:          0
L1D PREFETCH  REQUESTED:    6407698  ISSUED:    6255271  USEFUL:     117579  USELESS:     305119
L1D AVERAGE MISS LATENCY: 28.9154 cycles
L1D

SHEET
L1D-total_access : 18712308
L1D-total_hit : 17734272
L1D-total_miss : 978036
L1D-load_access : 6371183
L1D-load_hit : 5880033
L1D-load_miss : 491150
L1D-rfo_access : 6207314
L1D-rfo_hit : 6143121
L1D-rfo_miss : 64193
L1D-prefetch_access : 6133811
L1D-prefetch_hit : 5711118
L1D-prefetch_miss : 422693
L1D-writeback_access : 0
L1D-writeback_hit : 0
L1D-writeback_miss : 0
L1D-prefetch_requested : 6407698
L1D-prefetch_issued : 6255271
L1D-prefetch_useful : 117579
L1D-prefetch_useless : 305119
L1D-Avg_miss_latency : 28.9154

L1I TOTAL     ACCESS:   16666920  HIT:   11459302  MISS:    5207618
L1I LOAD      ACCESS:    9351627  HIT:    8976992  MISS:     374635
L1I RFO       ACCESS:          0  HIT:          0  MISS:          0
L1I PREFETCH  ACCESS:    7315293  HIT:    2482310  MISS:    4832983
L1I WRITEBACK ACCESS:          0  HIT:          0  MISS:          0
L1I PREFETCH  REQUESTED:    7714909  ISSUED:    7639013  USEFUL:    4154688  USELESS:     678317
L1I AVERAGE MISS LATENCY: 14.7771 cycles
L1I

SHEET
L1I-total_access : 16666920
L1I-total_hit : 11459302
L1I-total_miss : 5207618
L1I-load_access : 9351627
L1I-load_hit : 8976992
L1I-load_miss : 374635
L1I-rfo_access : 0
L1I-rfo_hit : 0
L1I-rfo_miss : 0
L1I-prefetch_access : 7315293
L1I-prefetch_hit : 2482310
L1I-prefetch_miss : 4832983
L1I-writeback_access : 0
L1I-writeback_hit : 0
L1I-writeback_miss : 0
L1I-prefetch_requested : 7714909
L1I-prefetch_issued : 7639013
L1I-prefetch_useful : 4154688
L1I-prefetch_useless : 678317
L1I-Avg_miss_latency : 14.7771

L2C TOTAL     ACCESS:    9024673  HIT:    8724986  MISS:     299687
L2C LOAD      ACCESS:     725505  HIT:     591009  MISS:     134496
L2C RFO       ACCESS:      63897  HIT:      37221  MISS:      26676
L2C PREFETCH  ACCESS:    7945701  HIT:    7808065  MISS:     137636
L2C WRITEBACK ACCESS:     289570  HIT:     288691  MISS:        879
L2C PREFETCH  REQUESTED:    8146544  ISSUED:    8115437  USEFUL:       6556  USELESS:     130898
L2C AVERAGE MISS LATENCY: 46.7704 cycles
L2C

SHEET
L2C-total_access : 9024673
L2C-total_hit : 8724986
L2C-total_miss : 299687
L2C-load_access : 725505
L2C-load_hit : 591009
L2C-load_miss : 134496
L2C-rfo_access : 63897
L2C-rfo_hit : 37221
L2C-rfo_miss : 26676
L2C-prefetch_access : 7945701
L2C-prefetch_hit : 7808065
L2C-prefetch_miss : 137636
L2C-writeback_access : 289570
L2C-writeback_hit : 288691
L2C-writeback_miss : 879
L2C-prefetch_requested : 8146544
L2C-prefetch_issued : 8115437
L2C-prefetch_useful : 6556
L2C-prefetch_useless : 130898
L2C-Avg_miss_latency : 46.7704

LLC TOTAL     ACCESS:    1986547  HIT:    1925797  MISS:      60750
LLC LOAD      ACCESS:     134479  HIT:     121641  MISS:      12838
LLC RFO       ACCESS:      26676  HIT:      22012  MISS:       4664
LLC PREFETCH  ACCESS:    1690606  HIT:    1648033  MISS:      42573
LLC WRITEBACK ACCESS:     134786  HIT:     134111  MISS:        675
LLC PREFETCH  REQUESTED:          0  ISSUED:          0  USEFUL:       4703  USELESS:      37437
LLC AVERAGE MISS LATENCY: 167.828 cycles
LLC

SHEET
LLC-total_access : 1986547
LLC-total_hit : 1925797
LLC-total_miss : 60750
LLC-load_access : 134479
LLC-load_hit : 121641
LLC-load_miss : 12838
LLC-rfo_access : 26676
LLC-rfo_hit : 22012
LLC-rfo_miss : 4664
LLC-prefetch_access : 1690606
LLC-prefetch_hit : 1648033
LLC-prefetch_miss : 42573
LLC-writeback_access : 134786
LLC-writeback_hit : 134111
LLC-writeback_miss : 675
LLC-prefetch_requested : 0
LLC-prefetch_issued : 0
LLC-prefetch_useful : 4703
LLC-prefetch_useless : 37437
LLC-Avg_miss_latency : 167.828

Major fault: 0 Minor fault: 5704



Printing Logs
statHeadFound: 297969
statHeadMissing: 550614
statStreamBufferHit: 13698356
statPrefetchEntryFound: 4848589
statCompactorMatch: 11308880
statStreamTrackerLookup: 14546939
statRecord: 3238059
statGetPointer: 848583
statEnqueuePrefetch: 15252259
statPrefetchQueueIsFull: 111
StreamBufferHitRate: 0.941666
Regions' size: 1137
next_region_correct: 2593944
next_region_wrong: 642960
next_region_correct_prediction: 0.801366
statStreamBufferLookups: 1047379608
statL1iLookups: 122018072
statCompactorLookups: 523689804
morteza: start

SHEET
mana_table_access_counter : 5434907
mana_table_multiple_access_counter : 2951129
hobp_table_access_counter : 24591753
sab_access_counter : 18546945
srq_access_counter : 16709693

morteza: end
CPU 0 L1D next line prefetcher final stats

DRAM Statistics
 CHANNEL 0
 RQ ROW_BUFFER_HIT:       8961  ROW_BUFFER_MISS:      51112
 DBUS_CONGESTED:      30064
 WQ ROW_BUFFER_HIT:       1310  ROW_BUFFER_MISS:      11086  FULL:          0

 AVG_CONGESTED_CYCLE: 5

CPU 0 Branch Prediction Accuracy: 99.913% MPKI: 0.15656 Average ROB Occupancy at Mispredict: 200.14

Branch types
NOT_BRANCH: 41001725 82.0034%
BRANCH_DIRECT_JUMP: 541941 1.08388%
BRANCH_INDIRECT: 59716 0.119432%
BRANCH_CONDITIONAL: 5916854 11.8337%
BRANCH_DIRECT_CALL: 1005465 2.01093%
BRANCH_INDIRECT_CALL: 234433 0.468866%
BRANCH_RETURN: 1239877 2.47975%
BRANCH_OTHER: 0 0%

