Initialize SIGNATURE TABLE
ST_SET: 1
ST_WAY: 256
ST_TAG_BIT: 16
ST_TAG_MASK: ffff

Initialize PATTERN TABLE
PT_SET: 512
PT_WAY: 4
SIG_DELTA_BIT: 7
C_SIG_BIT: 4
C_DELTA_BIT: 4

Initialize PREFETCH FILTER
FILTER_SET: 1024
MANA initialize 
tds: 2 tdm: 4
size MANA SINGLE: 74 KB
size MANA NULTIPLE: 43 KB
size HOBPT: 5 KB
size SRQ: 0.14502 KB
size SABs: 0.290039 KB
size prefetch queue: 0.453125 KB
total: 122.888 KB

*** ChampSim Multicore Out-of-Order Simulator ***

Warmup Instructions: 50000000
Simulation Instructions: 50000000
Number of CPUs: 1
LLC sets: 2048
LLC ways: 16
Off-chip DRAM Size: 4096 MB Channels: 1 Width: 64-bit Data Rate: 3200 MT/s

CPU 0 runs /home/mbaradaran/ChampSim/dpc3_traces/server_019.champsimtrace.xz
CPU 0 L1D next line prefetcher
Heartbeat CPU 0 instructions: 10000002 cycles: 3631885 heartbeat IPC: 2.75339 cumulative IPC: 2.75339 (Simulation time: 0 hr 2 min 4 sec) 
Heartbeat CPU 0 instructions: 20000003 cycles: 7264851 heartbeat IPC: 2.75257 cumulative IPC: 2.75298 (Simulation time: 0 hr 4 min 7 sec) 
Heartbeat CPU 0 instructions: 30000002 cycles: 10896335 heartbeat IPC: 2.7537 cumulative IPC: 2.75322 (Simulation time: 0 hr 6 min 13 sec) 
Heartbeat CPU 0 instructions: 40000002 cycles: 14539684 heartbeat IPC: 2.74473 cumulative IPC: 2.75109 (Simulation time: 0 hr 8 min 21 sec) 
Heartbeat CPU 0 instructions: 50000001 cycles: 18171953 heartbeat IPC: 2.7531 cumulative IPC: 2.75149 (Simulation time: 0 hr 10 min 20 sec) 

Warmup complete CPU 0 instructions: 50000001 cycles: 18171953 (Simulation time: 0 hr 10 min 20 sec) 

Heartbeat CPU 0 instructions: 60000000 cycles: 37843679 heartbeat IPC: 0.508344 cumulative IPC: 0.508344 (Simulation time: 0 hr 13 min 13 sec) 
Heartbeat CPU 0 instructions: 70000002 cycles: 61275020 heartbeat IPC: 0.426779 cumulative IPC: 0.464004 (Simulation time: 0 hr 15 min 43 sec) 
Heartbeat CPU 0 instructions: 80000001 cycles: 81711255 heartbeat IPC: 0.489327 cumulative IPC: 0.472149 (Simulation time: 0 hr 18 min 24 sec) 
Heartbeat CPU 0 instructions: 90000002 cycles: 99103163 heartbeat IPC: 0.57498 cumulative IPC: 0.494247 (Simulation time: 0 hr 20 min 56 sec) 
Heartbeat CPU 0 instructions: 100000002 cycles: 116513904 heartbeat IPC: 0.574358 cumulative IPC: 0.50843 (Simulation time: 0 hr 23 min 31 sec) 
Finished CPU 0 instructions: 50000001 cycles: 98341951 cumulative IPC: 0.50843 (Simulation time: 0 hr 23 min 31 sec) 

ChampSim completed all CPUs

Region of Interest Statistics

CPU 0 cumulative IPC: 0.50843 instructions: 50000001 cycles: 98341951

SHEET
IPC : 0.50843

L1D TOTAL     ACCESS:   18317291  HIT:   16093707  MISS:    2223584
L1D LOAD      ACCESS:    6986693  HIT:    6233805  MISS:     752888
L1D RFO       ACCESS:    5508735  HIT:    4606830  MISS:     901905
L1D PREFETCH  ACCESS:    5821863  HIT:    5253072  MISS:     568791
L1D WRITEBACK ACCESS:          0  HIT:          0  MISS:          0
L1D PREFETCH  REQUESTED:    7024685  ISSUED:    6838776  USEFUL:     199589  USELESS:     369110
L1D AVERAGE MISS LATENCY: 186.224 cycles
L1D

SHEET
L1D-total_access : 18317291
L1D-total_hit : 16093707
L1D-total_miss : 2223584
L1D-load_access : 6986693
L1D-load_hit : 6233805
L1D-load_miss : 752888
L1D-rfo_access : 5508735
L1D-rfo_hit : 4606830
L1D-rfo_miss : 901905
L1D-prefetch_access : 5821863
L1D-prefetch_hit : 5253072
L1D-prefetch_miss : 568791
L1D-writeback_access : 0
L1D-writeback_hit : 0
L1D-writeback_miss : 0
L1D-prefetch_requested : 7024685
L1D-prefetch_issued : 6838776
L1D-prefetch_useful : 199589
L1D-prefetch_useless : 369110
L1D-Avg_miss_latency : 186.224

L1I TOTAL     ACCESS:   15119846  HIT:   12024084  MISS:    3095762
L1I LOAD      ACCESS:    9807906  HIT:    9597130  MISS:     210776
L1I RFO       ACCESS:          0  HIT:          0  MISS:          0
L1I PREFETCH  ACCESS:    5311940  HIT:    2426954  MISS:    2884986
L1I WRITEBACK ACCESS:          0  HIT:          0  MISS:          0
L1I PREFETCH  REQUESTED:    5618489  ISSUED:    5552918  USEFUL:    2580925  USELESS:     304011
L1I AVERAGE MISS LATENCY: 17.7234 cycles
L1I

SHEET
L1I-total_access : 15119846
L1I-total_hit : 12024084
L1I-total_miss : 3095762
L1I-load_access : 9807906
L1I-load_hit : 9597130
L1I-load_miss : 210776
L1I-rfo_access : 0
L1I-rfo_hit : 0
L1I-rfo_miss : 0
L1I-prefetch_access : 5311940
L1I-prefetch_hit : 2426954
L1I-prefetch_miss : 2884986
L1I-writeback_access : 0
L1I-writeback_hit : 0
L1I-writeback_miss : 0
L1I-prefetch_requested : 5618489
L1I-prefetch_issued : 5552918
L1I-prefetch_useful : 2580925
L1I-prefetch_useless : 304011
L1I-Avg_miss_latency : 17.7234

L2C TOTAL     ACCESS:    7664348  HIT:    5775852  MISS:    1888496
L2C LOAD      ACCESS:     702879  HIT:     365036  MISS:     337843
L2C RFO       ACCESS:     901548  HIT:      17865  MISS:     883683
L2C PREFETCH  ACCESS:    4885253  HIT:    4221119  MISS:     664134
L2C WRITEBACK ACCESS:    1174668  HIT:    1171832  MISS:       2836
L2C PREFETCH  REQUESTED:    5125714  ISSUED:    5117372  USEFUL:      29640  USELESS:     632951
L2C AVERAGE MISS LATENCY: 221.944 cycles
L2C

SHEET
L2C-total_access : 7664348
L2C-total_hit : 5775852
L2C-total_miss : 1888496
L2C-load_access : 702879
L2C-load_hit : 365036
L2C-load_miss : 337843
L2C-rfo_access : 901548
L2C-rfo_hit : 17865
L2C-rfo_miss : 883683
L2C-prefetch_access : 4885253
L2C-prefetch_hit : 4221119
L2C-prefetch_miss : 664134
L2C-writeback_access : 1174668
L2C-writeback_hit : 1171832
L2C-writeback_miss : 2836
L2C-prefetch_requested : 5125714
L2C-prefetch_issued : 5117372
L2C-prefetch_useful : 29640
L2C-prefetch_useless : 632951
L2C-Avg_miss_latency : 221.944

LLC TOTAL     ACCESS:    4406564  HIT:    2804405  MISS:    1602159
LLC LOAD      ACCESS:     337717  HIT:     171152  MISS:     166565
LLC RFO       ACCESS:     883660  HIT:     115170  MISS:     768490
LLC PREFETCH  ACCESS:    2072944  HIT:    1408066  MISS:     664878
LLC WRITEBACK ACCESS:    1112243  HIT:    1110017  MISS:       2226
LLC PREFETCH  REQUESTED:          0  ISSUED:          0  USEFUL:      52588  USELESS:     611206
LLC AVERAGE MISS LATENCY: 276.313 cycles
LLC

SHEET
LLC-total_access : 4406564
LLC-total_hit : 2804405
LLC-total_miss : 1602159
LLC-load_access : 337717
LLC-load_hit : 171152
LLC-load_miss : 166565
LLC-rfo_access : 883660
LLC-rfo_hit : 115170
LLC-rfo_miss : 768490
LLC-prefetch_access : 2072944
LLC-prefetch_hit : 1408066
LLC-prefetch_miss : 664878
LLC-writeback_access : 1112243
LLC-writeback_hit : 1110017
LLC-writeback_miss : 2226
LLC-prefetch_requested : 0
LLC-prefetch_issued : 0
LLC-prefetch_useful : 52588
LLC-prefetch_useless : 611206
LLC-Avg_miss_latency : 276.313

Major fault: 0 Minor fault: 25745



Printing Logs
statHeadFound: 274467
statHeadMissing: 1261094
statStreamBufferHit: 11702840
statPrefetchEntryFound: 3780054
statCompactorMatch: 10996619
statStreamTrackerLookup: 13238401
statRecord: 2241782
statGetPointer: 1535561
statEnqueuePrefetch: 11736913
statPrefetchQueueIsFull: 1782
StreamBufferHitRate: 0.884007
Regions' size: 1391
next_region_correct: 1897734
next_region_wrong: 342639
next_region_correct_prediction: 0.847062
statStreamBufferLookups: 953164872
statL1iLookups: 93895304
statCompactorLookups: 476582436
morteza: start

SHEET
mana_table_access_counter : 3897523
mana_table_multiple_access_counter : 2402032
hobp_table_access_counter : 25035875
sab_access_counter : 15482894
srq_access_counter : 14415659

morteza: end
CPU 0 L1D next line prefetcher final stats

DRAM Statistics
 CHANNEL 0
 RQ ROW_BUFFER_HIT:     398871  ROW_BUFFER_MISS:    1200849
 DBUS_CONGESTED:    1586917
 WQ ROW_BUFFER_HIT:     254343  ROW_BUFFER_MISS:     682497  FULL:          0

 AVG_CONGESTED_CYCLE: 6

CPU 0 Branch Prediction Accuracy: 99.2186% MPKI: 1.32192 Average ROB Occupancy at Mispredict: 177.547

Branch types
NOT_BRANCH: 41540785 83.0816%
BRANCH_DIRECT_JUMP: 462384 0.924768%
BRANCH_INDIRECT: 45460 0.09092%
BRANCH_CONDITIONAL: 6209281 12.4186%
BRANCH_DIRECT_CALL: 666241 1.33248%
BRANCH_INDIRECT_CALL: 204728 0.409456%
BRANCH_RETURN: 870978 1.74196%
BRANCH_OTHER: 0 0%

