Initialize SIGNATURE TABLE
ST_SET: 1
ST_WAY: 256
ST_TAG_BIT: 16
ST_TAG_MASK: ffff

Initialize PATTERN TABLE
PT_SET: 512
PT_WAY: 4
SIG_DELTA_BIT: 7
C_SIG_BIT: 4
C_DELTA_BIT: 4

Initialize PREFETCH FILTER
FILTER_SET: 1024
MANA initialize 
tds: 2 tdm: 4
size MANA SINGLE: 74 KB
size MANA NULTIPLE: 43 KB
size HOBPT: 5 KB
size SRQ: 0.14502 KB
size SABs: 0.290039 KB
size prefetch queue: 0.453125 KB
total: 122.888 KB

*** ChampSim Multicore Out-of-Order Simulator ***

Warmup Instructions: 50000000
Simulation Instructions: 50000000
Number of CPUs: 1
LLC sets: 2048
LLC ways: 16
Off-chip DRAM Size: 4096 MB Channels: 1 Width: 64-bit Data Rate: 3200 MT/s

CPU 0 runs /home/mbaradaran/ChampSim/dpc3_traces/server_018.champsimtrace.xz
CPU 0 L1D next line prefetcher
Heartbeat CPU 0 instructions: 10000003 cycles: 3625113 heartbeat IPC: 2.75854 cumulative IPC: 2.75854 (Simulation time: 0 hr 2 min 0 sec) 
Heartbeat CPU 0 instructions: 20000001 cycles: 7254680 heartbeat IPC: 2.75515 cumulative IPC: 2.75684 (Simulation time: 0 hr 3 min 53 sec) 
Heartbeat CPU 0 instructions: 30000003 cycles: 10735455 heartbeat IPC: 2.87292 cumulative IPC: 2.79448 (Simulation time: 0 hr 5 min 46 sec) 
Heartbeat CPU 0 instructions: 40000000 cycles: 14253637 heartbeat IPC: 2.84238 cumulative IPC: 2.8063 (Simulation time: 0 hr 7 min 34 sec) 
Heartbeat CPU 0 instructions: 50000003 cycles: 17879309 heartbeat IPC: 2.75811 cumulative IPC: 2.79653 (Simulation time: 0 hr 9 min 31 sec) 

Warmup complete CPU 0 instructions: 50000003 cycles: 17879309 (Simulation time: 0 hr 9 min 31 sec) 

Heartbeat CPU 0 instructions: 60000000 cycles: 35289640 heartbeat IPC: 0.574371 cumulative IPC: 0.574371 (Simulation time: 0 hr 12 min 10 sec) 
Heartbeat CPU 0 instructions: 70000001 cycles: 52707504 heartbeat IPC: 0.574123 cumulative IPC: 0.574247 (Simulation time: 0 hr 14 min 39 sec) 
Heartbeat CPU 0 instructions: 80000000 cycles: 69975665 heartbeat IPC: 0.5791 cumulative IPC: 0.575856 (Simulation time: 0 hr 17 min 15 sec) 
Heartbeat CPU 0 instructions: 90000002 cycles: 87328020 heartbeat IPC: 0.576291 cumulative IPC: 0.575965 (Simulation time: 0 hr 19 min 55 sec) 
Heartbeat CPU 0 instructions: 100000001 cycles: 104752900 heartbeat IPC: 0.573892 cumulative IPC: 0.575549 (Simulation time: 0 hr 22 min 32 sec) 
Finished CPU 0 instructions: 50000002 cycles: 86873592 cumulative IPC: 0.575549 (Simulation time: 0 hr 22 min 32 sec) 

ChampSim completed all CPUs

Region of Interest Statistics

CPU 0 cumulative IPC: 0.575549 instructions: 50000002 cycles: 86873592

SHEET
IPC : 0.575549

L1D TOTAL     ACCESS:   18641617  HIT:   16423798  MISS:    2217819
L1D LOAD      ACCESS:    7056759  HIT:    6332314  MISS:     724445
L1D RFO       ACCESS:    5806333  HIT:    4854187  MISS:     952146
L1D PREFETCH  ACCESS:    5778525  HIT:    5237297  MISS:     541228
L1D WRITEBACK ACCESS:          0  HIT:          0  MISS:          0
L1D PREFETCH  REQUESTED:    7098286  ISSUED:    6894927  USEFUL:     201410  USELESS:     339907
L1D AVERAGE MISS LATENCY: 175.159 cycles
L1D

SHEET
L1D-total_access : 18641617
L1D-total_hit : 16423798
L1D-total_miss : 2217819
L1D-load_access : 7056759
L1D-load_hit : 6332314
L1D-load_miss : 724445
L1D-rfo_access : 5806333
L1D-rfo_hit : 4854187
L1D-rfo_miss : 952146
L1D-prefetch_access : 5778525
L1D-prefetch_hit : 5237297
L1D-prefetch_miss : 541228
L1D-writeback_access : 0
L1D-writeback_hit : 0
L1D-writeback_miss : 0
L1D-prefetch_requested : 7098286
L1D-prefetch_issued : 6894927
L1D-prefetch_useful : 201410
L1D-prefetch_useless : 339907
L1D-Avg_miss_latency : 175.159

L1I TOTAL     ACCESS:   15880279  HIT:   12409376  MISS:    3470903
L1I LOAD      ACCESS:   10052981  HIT:    9789847  MISS:     263134
L1I RFO       ACCESS:          0  HIT:          0  MISS:          0
L1I PREFETCH  ACCESS:    5827298  HIT:    2619529  MISS:    3207769
L1I WRITEBACK ACCESS:          0  HIT:          0  MISS:          0
L1I PREFETCH  REQUESTED:    6124899  ISSUED:    6088488  USEFUL:    2877579  USELESS:     330191
L1I AVERAGE MISS LATENCY: 16.9791 cycles
L1I

SHEET
L1I-total_access : 15880279
L1I-total_hit : 12409376
L1I-total_miss : 3470903
L1I-load_access : 10052981
L1I-load_hit : 9789847
L1I-load_miss : 263134
L1I-rfo_access : 0
L1I-rfo_hit : 0
L1I-rfo_miss : 0
L1I-prefetch_access : 5827298
L1I-prefetch_hit : 2619529
L1I-prefetch_miss : 3207769
L1I-writeback_access : 0
L1I-writeback_hit : 0
L1I-writeback_miss : 0
L1I-prefetch_requested : 6124899
L1I-prefetch_issued : 6088488
L1I-prefetch_useful : 2877579
L1I-prefetch_useless : 330191
L1I-Avg_miss_latency : 16.9791

L2C TOTAL     ACCESS:    8215788  HIT:    6362109  MISS:    1853679
L2C LOAD      ACCESS:     695786  HIT:     426393  MISS:     269393
L2C RFO       ACCESS:     951742  HIT:      20061  MISS:     931681
L2C PREFETCH  ACCESS:    5398211  HIT:    4749500  MISS:     648711
L2C WRITEBACK ACCESS:    1170049  HIT:    1166155  MISS:       3894
L2C PREFETCH  REQUESTED:    5467823  ISSUED:    5458896  USEFUL:      30385  USELESS:     619233
L2C AVERAGE MISS LATENCY: 213.41 cycles
L2C

SHEET
L2C-total_access : 8215788
L2C-total_hit : 6362109
L2C-total_miss : 1853679
L2C-load_access : 695786
L2C-load_hit : 426393
L2C-load_miss : 269393
L2C-rfo_access : 951742
L2C-rfo_hit : 20061
L2C-rfo_miss : 931681
L2C-prefetch_access : 5398211
L2C-prefetch_hit : 4749500
L2C-prefetch_miss : 648711
L2C-writeback_access : 1170049
L2C-writeback_hit : 1166155
L2C-writeback_miss : 3894
L2C-prefetch_requested : 5467823
L2C-prefetch_issued : 5458896
L2C-prefetch_useful : 30385
L2C-prefetch_useless : 619233
L2C-Avg_miss_latency : 213.41

LLC TOTAL     ACCESS:    4318926  HIT:    2871186  MISS:    1447740
LLC LOAD      ACCESS:     269332  HIT:     172162  MISS:      97170
LLC RFO       ACCESS:     931675  HIT:     135324  MISS:     796351
LLC PREFETCH  ACCESS:    2015569  HIT:    1463526  MISS:     552043
LLC WRITEBACK ACCESS:    1102350  HIT:    1100174  MISS:       2176
LLC PREFETCH  REQUESTED:          0  ISSUED:          0  USEFUL:      29858  USELESS:     522307
LLC AVERAGE MISS LATENCY: 280.931 cycles
LLC

SHEET
LLC-total_access : 4318926
LLC-total_hit : 2871186
LLC-total_miss : 1447740
LLC-load_access : 269332
LLC-load_hit : 172162
LLC-load_miss : 97170
LLC-rfo_access : 931675
LLC-rfo_hit : 135324
LLC-rfo_miss : 796351
LLC-prefetch_access : 2015569
LLC-prefetch_hit : 1463526
LLC-prefetch_miss : 552043
LLC-writeback_access : 1102350
LLC-writeback_hit : 1100174
LLC-writeback_miss : 2176
LLC-prefetch_requested : 0
LLC-prefetch_issued : 0
LLC-prefetch_useful : 29858
LLC-prefetch_useless : 522307
LLC-Avg_miss_latency : 280.931

Major fault: 0 Minor fault: 22495



Printing Logs
statHeadFound: 263711
statHeadMissing: 1226755
statStreamBufferHit: 11684412
statPrefetchEntryFound: 3724597
statCompactorMatch: 10947576
statStreamTrackerLookup: 13174878
statRecord: 2227302
statGetPointer: 1490466
statEnqueuePrefetch: 11556074
statPrefetchQueueIsFull: 1193
StreamBufferHitRate: 0.886871
Regions' size: 1314
next_region_correct: 1886585
next_region_wrong: 339385
next_region_correct_prediction: 0.847534
statStreamBufferLookups: 948591216
statL1iLookups: 92448592
statCompactorLookups: 474295608
morteza: start

SHEET
mana_table_access_counter : 3816393
mana_table_multiple_access_counter : 2401841
hobp_table_access_counter : 24561084
sab_access_counter : 15409009
srq_access_counter : 14314688

morteza: end
CPU 0 L1D next line prefetcher final stats

DRAM Statistics
 CHANNEL 0
 RQ ROW_BUFFER_HIT:     409659  ROW_BUFFER_MISS:    1035546
 DBUS_CONGESTED:    1454542
 WQ ROW_BUFFER_HIT:     251175  ROW_BUFFER_MISS:     644199  FULL:          0

 AVG_CONGESTED_CYCLE: 6

CPU 0 Branch Prediction Accuracy: 99.7114% MPKI: 0.47678 Average ROB Occupancy at Mispredict: 207.635

Branch types
NOT_BRANCH: 41741008 83.482%
BRANCH_DIRECT_JUMP: 458652 0.917304%
BRANCH_INDIRECT: 48282 0.096564%
BRANCH_CONDITIONAL: 5930881 11.8618%
BRANCH_DIRECT_CALL: 744230 1.48846%
BRANCH_INDIRECT_CALL: 166336 0.332672%
BRANCH_RETURN: 910589 1.82118%
BRANCH_OTHER: 0 0%

