Initialize SIGNATURE TABLE
ST_SET: 1
ST_WAY: 256
ST_TAG_BIT: 16
ST_TAG_MASK: ffff

Initialize PATTERN TABLE
PT_SET: 512
PT_WAY: 4
SIG_DELTA_BIT: 7
C_SIG_BIT: 4
C_DELTA_BIT: 4

Initialize PREFETCH FILTER
FILTER_SET: 1024
MANA initialize 
tds: 2 tdm: 4
size MANA SINGLE: 74 KB
size MANA NULTIPLE: 43 KB
size HOBPT: 5 KB
size SRQ: 0.14502 KB
size SABs: 0.290039 KB
size prefetch queue: 0.453125 KB
total: 122.888 KB

*** ChampSim Multicore Out-of-Order Simulator ***

Warmup Instructions: 50000000
Simulation Instructions: 50000000
Number of CPUs: 1
LLC sets: 2048
LLC ways: 16
Off-chip DRAM Size: 4096 MB Channels: 1 Width: 64-bit Data Rate: 3200 MT/s

CPU 0 runs /home/mbaradaran/ChampSim/dpc3_traces/server_025.champsimtrace.xz
CPU 0 L1D next line prefetcher
Heartbeat CPU 0 instructions: 10000003 cycles: 3540946 heartbeat IPC: 2.82411 cumulative IPC: 2.82411 (Simulation time: 0 hr 1 min 56 sec) 
Heartbeat CPU 0 instructions: 20000000 cycles: 7088653 heartbeat IPC: 2.81872 cumulative IPC: 2.82141 (Simulation time: 0 hr 3 min 59 sec) 
Heartbeat CPU 0 instructions: 30000001 cycles: 10628383 heartbeat IPC: 2.82507 cumulative IPC: 2.82263 (Simulation time: 0 hr 5 min 57 sec) 
Heartbeat CPU 0 instructions: 40000003 cycles: 14173945 heartbeat IPC: 2.82043 cumulative IPC: 2.82208 (Simulation time: 0 hr 8 min 3 sec) 
Heartbeat CPU 0 instructions: 50000001 cycles: 17717505 heartbeat IPC: 2.82202 cumulative IPC: 2.82207 (Simulation time: 0 hr 9 min 55 sec) 

Warmup complete CPU 0 instructions: 50000001 cycles: 17717505 (Simulation time: 0 hr 9 min 55 sec) 

Heartbeat CPU 0 instructions: 60000002 cycles: 24991184 heartbeat IPC: 1.37482 cumulative IPC: 1.37482 (Simulation time: 0 hr 11 min 42 sec) 
Heartbeat CPU 0 instructions: 70000000 cycles: 32355044 heartbeat IPC: 1.35798 cumulative IPC: 1.36635 (Simulation time: 0 hr 13 min 30 sec) 
Heartbeat CPU 0 instructions: 80000002 cycles: 39629850 heartbeat IPC: 1.37461 cumulative IPC: 1.36909 (Simulation time: 0 hr 15 min 19 sec) 
Heartbeat CPU 0 instructions: 90000001 cycles: 46469192 heartbeat IPC: 1.46213 cumulative IPC: 1.39122 (Simulation time: 0 hr 17 min 5 sec) 
Heartbeat CPU 0 instructions: 100000003 cycles: 52961077 heartbeat IPC: 1.54039 cumulative IPC: 1.4187 (Simulation time: 0 hr 18 min 47 sec) 
Finished CPU 0 instructions: 50000002 cycles: 35243572 cumulative IPC: 1.4187 (Simulation time: 0 hr 18 min 47 sec) 

ChampSim completed all CPUs

Region of Interest Statistics

CPU 0 cumulative IPC: 1.4187 instructions: 50000002 cycles: 35243572

SHEET
IPC : 1.4187

L1D TOTAL     ACCESS:   20430506  HIT:   19004454  MISS:    1426052
L1D LOAD      ACCESS:    7175460  HIT:    6557465  MISS:     617995
L1D RFO       ACCESS:    6392313  HIT:    6143878  MISS:     248435
L1D PREFETCH  ACCESS:    6862733  HIT:    6303111  MISS:     559622
L1D WRITEBACK ACCESS:          0  HIT:          0  MISS:          0
L1D PREFETCH  REQUESTED:    7216867  ISSUED:    7046767  USEFUL:     131966  USELESS:     427648
L1D AVERAGE MISS LATENCY: 23.4017 cycles
L1D

SHEET
L1D-total_access : 20430506
L1D-total_hit : 19004454
L1D-total_miss : 1426052
L1D-load_access : 7175460
L1D-load_hit : 6557465
L1D-load_miss : 617995
L1D-rfo_access : 6392313
L1D-rfo_hit : 6143878
L1D-rfo_miss : 248435
L1D-prefetch_access : 6862733
L1D-prefetch_hit : 6303111
L1D-prefetch_miss : 559622
L1D-writeback_access : 0
L1D-writeback_hit : 0
L1D-writeback_miss : 0
L1D-prefetch_requested : 7216867
L1D-prefetch_issued : 7046767
L1D-prefetch_useful : 131966
L1D-prefetch_useless : 427648
L1D-Avg_miss_latency : 23.4017

L1I TOTAL     ACCESS:   17981511  HIT:   12859033  MISS:    5122478
L1I LOAD      ACCESS:    9368967  HIT:    8635671  MISS:     733296
L1I RFO       ACCESS:          0  HIT:          0  MISS:          0
L1I PREFETCH  ACCESS:    8612544  HIT:    4223362  MISS:    4389182
L1I WRITEBACK ACCESS:          0  HIT:          0  MISS:          0
L1I PREFETCH  REQUESTED:    9570941  ISSUED:    9355918  USEFUL:    2411786  USELESS:    1977381
L1I AVERAGE MISS LATENCY: 16.5275 cycles
L1I

SHEET
L1I-total_access : 17981511
L1I-total_hit : 12859033
L1I-total_miss : 5122478
L1I-load_access : 9368967
L1I-load_hit : 8635671
L1I-load_miss : 733296
L1I-rfo_access : 0
L1I-rfo_hit : 0
L1I-rfo_miss : 0
L1I-prefetch_access : 8612544
L1I-prefetch_hit : 4223362
L1I-prefetch_miss : 4389182
L1I-writeback_access : 0
L1I-writeback_hit : 0
L1I-writeback_miss : 0
L1I-prefetch_requested : 9570941
L1I-prefetch_issued : 9355918
L1I-prefetch_useful : 2411786
L1I-prefetch_useless : 1977381
L1I-Avg_miss_latency : 16.5275

L2C TOTAL     ACCESS:    8697118  HIT:    8006105  MISS:     691013
L2C LOAD      ACCESS:    1137369  HIT:     975770  MISS:     161599
L2C RFO       ACCESS:     246898  HIT:     169862  MISS:      77036
L2C PREFETCH  ACCESS:    6816145  HIT:    6371751  MISS:     444394
L2C WRITEBACK ACCESS:     496706  HIT:     488722  MISS:       7984
L2C PREFETCH  REQUESTED:    7178551  ISSUED:    7164931  USEFUL:      42184  USELESS:     401147
L2C AVERAGE MISS LATENCY: 38.2237 cycles
L2C

SHEET
L2C-total_access : 8697118
L2C-total_hit : 8006105
L2C-total_miss : 691013
L2C-load_access : 1137369
L2C-load_hit : 975770
L2C-load_miss : 161599
L2C-rfo_access : 246898
L2C-rfo_hit : 169862
L2C-rfo_miss : 77036
L2C-prefetch_access : 6816145
L2C-prefetch_hit : 6371751
L2C-prefetch_miss : 444394
L2C-writeback_access : 496706
L2C-writeback_hit : 488722
L2C-writeback_miss : 7984
L2C-prefetch_requested : 7178551
L2C-prefetch_issued : 7164931
L2C-prefetch_useful : 42184
L2C-prefetch_useless : 401147
L2C-Avg_miss_latency : 38.2237

LLC TOTAL     ACCESS:    2572560  HIT:    2544944  MISS:      27616
LLC LOAD      ACCESS:     161523  HIT:     158355  MISS:       3168
LLC RFO       ACCESS:      76937  HIT:      66158  MISS:      10779
LLC PREFETCH  ACCESS:    2197695  HIT:    2184212  MISS:      13483
LLC WRITEBACK ACCESS:     136405  HIT:     136219  MISS:        186
LLC PREFETCH  REQUESTED:          0  ISSUED:          0  USEFUL:       1171  USELESS:      11334
LLC AVERAGE MISS LATENCY: 181.645 cycles
LLC

SHEET
LLC-total_access : 2572560
LLC-total_hit : 2544944
LLC-total_miss : 27616
LLC-load_access : 161523
LLC-load_hit : 158355
LLC-load_miss : 3168
LLC-rfo_access : 76937
LLC-rfo_hit : 66158
LLC-rfo_miss : 10779
LLC-prefetch_access : 2197695
LLC-prefetch_hit : 2184212
LLC-prefetch_miss : 13483
LLC-writeback_access : 136405
LLC-writeback_hit : 136219
LLC-writeback_miss : 186
LLC-prefetch_requested : 0
LLC-prefetch_issued : 0
LLC-prefetch_useful : 1171
LLC-prefetch_useless : 11334
LLC-Avg_miss_latency : 181.645

Major fault: 0 Minor fault: 2519



Printing Logs
statHeadFound: 741934
statHeadMissing: 744581
statStreamBufferHit: 12917106
statPrefetchEntryFound: 6252349
statCompactorMatch: 11758446
statStreamTrackerLookup: 14403621
statRecord: 2645175
statGetPointer: 1486515
statEnqueuePrefetch: 18660326
statPrefetchQueueIsFull: 36366
StreamBufferHitRate: 0.896796
Regions' size: 2307
next_region_correct: 1865687
next_region_wrong: 777163
next_region_correct_prediction: 0.705938
statStreamBufferLookups: 1037060712
statL1iLookups: 149282608
statCompactorLookups: 518530356
morteza: start

SHEET
mana_table_access_counter : 4685040
mana_table_multiple_access_counter : 4994486
hobp_table_access_counter : 28767695
sab_access_counter : 19169455
srq_access_counter : 15661098

morteza: end
CPU 0 L1D next line prefetcher final stats

DRAM Statistics
 CHANNEL 0
 RQ ROW_BUFFER_HIT:       9082  ROW_BUFFER_MISS:      18346
 DBUS_CONGESTED:      18902
 WQ ROW_BUFFER_HIT:       1338  ROW_BUFFER_MISS:      11613  FULL:          0

 AVG_CONGESTED_CYCLE: 6

CPU 0 Branch Prediction Accuracy: 99.8142% MPKI: 0.34676 Average ROB Occupancy at Mispredict: 153.023

Branch types
NOT_BRANCH: 40668700 81.3374%
BRANCH_DIRECT_JUMP: 531698 1.0634%
BRANCH_INDIRECT: 199023 0.398046%
BRANCH_CONDITIONAL: 6211456 12.4229%
BRANCH_DIRECT_CALL: 1010905 2.02181%
BRANCH_INDIRECT_CALL: 183501 0.367002%
BRANCH_RETURN: 1194407 2.38881%
BRANCH_OTHER: 0 0%

