Initialize SIGNATURE TABLE
ST_SET: 1
ST_WAY: 256
ST_TAG_BIT: 16
ST_TAG_MASK: ffff

Initialize PATTERN TABLE
PT_SET: 512
PT_WAY: 4
SIG_DELTA_BIT: 7
C_SIG_BIT: 4
C_DELTA_BIT: 4

Initialize PREFETCH FILTER
FILTER_SET: 1024
MANA initialize 
tds: 2 tdm: 4
size MANA SINGLE: 74 KB
size MANA NULTIPLE: 43 KB
size HOBPT: 5 KB
size SRQ: 0.14502 KB
size SABs: 0.290039 KB
size prefetch queue: 0.453125 KB
total: 122.888 KB

*** ChampSim Multicore Out-of-Order Simulator ***

Warmup Instructions: 50000000
Simulation Instructions: 50000000
Number of CPUs: 1
LLC sets: 2048
LLC ways: 16
Off-chip DRAM Size: 4096 MB Channels: 1 Width: 64-bit Data Rate: 3200 MT/s

CPU 0 runs /home/mbaradaran/ChampSim/dpc3_traces/server_034.champsimtrace.xz
CPU 0 L1D next line prefetcher
Heartbeat CPU 0 instructions: 10000000 cycles: 3334229 heartbeat IPC: 2.99919 cumulative IPC: 2.99919 (Simulation time: 0 hr 1 min 52 sec) 
Heartbeat CPU 0 instructions: 20000002 cycles: 6661415 heartbeat IPC: 3.00554 cumulative IPC: 3.00237 (Simulation time: 0 hr 3 min 37 sec) 
Heartbeat CPU 0 instructions: 30000003 cycles: 9997106 heartbeat IPC: 2.99788 cumulative IPC: 3.00087 (Simulation time: 0 hr 5 min 28 sec) 
Heartbeat CPU 0 instructions: 40000001 cycles: 13331152 heartbeat IPC: 2.99936 cumulative IPC: 3.00049 (Simulation time: 0 hr 7 min 24 sec) 
Heartbeat CPU 0 instructions: 50000000 cycles: 16663950 heartbeat IPC: 3.00048 cumulative IPC: 3.00049 (Simulation time: 0 hr 9 min 14 sec) 

Warmup complete CPU 0 instructions: 50000002 cycles: 16663951 (Simulation time: 0 hr 9 min 14 sec) 

Heartbeat CPU 0 instructions: 60000002 cycles: 22756615 heartbeat IPC: 1.64132 cumulative IPC: 1.64132 (Simulation time: 0 hr 11 min 0 sec) 
Heartbeat CPU 0 instructions: 70000003 cycles: 29199373 heartbeat IPC: 1.55213 cumulative IPC: 1.59548 (Simulation time: 0 hr 12 min 45 sec) 
Heartbeat CPU 0 instructions: 80000002 cycles: 35358670 heartbeat IPC: 1.62356 cumulative IPC: 1.60473 (Simulation time: 0 hr 14 min 29 sec) 
Heartbeat CPU 0 instructions: 90000002 cycles: 41514491 heartbeat IPC: 1.62448 cumulative IPC: 1.60962 (Simulation time: 0 hr 16 min 12 sec) 
Heartbeat CPU 0 instructions: 100000002 cycles: 47661230 heartbeat IPC: 1.62688 cumulative IPC: 1.61304 (Simulation time: 0 hr 18 min 0 sec) 
Finished CPU 0 instructions: 50000000 cycles: 30997279 cumulative IPC: 1.61304 (Simulation time: 0 hr 18 min 0 sec) 

ChampSim completed all CPUs

Region of Interest Statistics

CPU 0 cumulative IPC: 1.61304 instructions: 50000000 cycles: 30997279

SHEET
IPC : 1.61304

L1D TOTAL     ACCESS:   18444494  HIT:   17020271  MISS:    1424223
L1D LOAD      ACCESS:    6230496  HIT:    5574769  MISS:     655727
L1D RFO       ACCESS:    6161160  HIT:    6018111  MISS:     143049
L1D PREFETCH  ACCESS:    6052838  HIT:    5427391  MISS:     625447
L1D WRITEBACK ACCESS:          0  HIT:          0  MISS:          0
L1D PREFETCH  REQUESTED:    6264638  ISSUED:    6180689  USEFUL:     140911  USELESS:     484503
L1D AVERAGE MISS LATENCY: 17.5985 cycles
L1D

SHEET
L1D-total_access : 18444494
L1D-total_hit : 17020271
L1D-total_miss : 1424223
L1D-load_access : 6230496
L1D-load_hit : 5574769
L1D-load_miss : 655727
L1D-rfo_access : 6161160
L1D-rfo_hit : 6018111
L1D-rfo_miss : 143049
L1D-prefetch_access : 6052838
L1D-prefetch_hit : 5427391
L1D-prefetch_miss : 625447
L1D-writeback_access : 0
L1D-writeback_hit : 0
L1D-writeback_miss : 0
L1D-prefetch_requested : 6264638
L1D-prefetch_issued : 6180689
L1D-prefetch_useful : 140911
L1D-prefetch_useless : 484503
L1D-Avg_miss_latency : 17.5985

L1I TOTAL     ACCESS:   17702515  HIT:   12746189  MISS:    4956326
L1I LOAD      ACCESS:    9582310  HIT:    9066857  MISS:     515453
L1I RFO       ACCESS:          0  HIT:          0  MISS:          0
L1I PREFETCH  ACCESS:    8120205  HIT:    3679332  MISS:    4440873
L1I WRITEBACK ACCESS:          0  HIT:          0  MISS:          0
L1I PREFETCH  REQUESTED:    8732990  ISSUED:    8692064  USEFUL:    3323906  USELESS:    1116965
L1I AVERAGE MISS LATENCY: 14.7204 cycles
L1I

SHEET
L1I-total_access : 17702515
L1I-total_hit : 12746189
L1I-total_miss : 4956326
L1I-load_access : 9582310
L1I-load_hit : 9066857
L1I-load_miss : 515453
L1I-rfo_access : 0
L1I-rfo_hit : 0
L1I-rfo_miss : 0
L1I-prefetch_access : 8120205
L1I-prefetch_hit : 3679332
L1I-prefetch_miss : 4440873
L1I-writeback_access : 0
L1I-writeback_hit : 0
L1I-writeback_miss : 0
L1I-prefetch_requested : 8732990
L1I-prefetch_issued : 8692064
L1I-prefetch_useful : 3323906
L1I-prefetch_useless : 1116965
L1I-Avg_miss_latency : 14.7204

L2C TOTAL     ACCESS:    8572380  HIT:    8450924  MISS:     121456
L2C LOAD      ACCESS:    1013405  HIT:     973316  MISS:      40089
L2C RFO       ACCESS:     141252  HIT:     133146  MISS:       8106
L2C PREFETCH  ACCESS:    7066927  HIT:    6994551  MISS:      72376
L2C WRITEBACK ACCESS:     350796  HIT:     349911  MISS:        885
L2C PREFETCH  REQUESTED:    7442560  ISSUED:    7427958  USEFUL:       4220  USELESS:      67105
L2C AVERAGE MISS LATENCY: 39.4066 cycles
L2C

SHEET
L2C-total_access : 8572380
L2C-total_hit : 8450924
L2C-total_miss : 121456
L2C-load_access : 1013405
L2C-load_hit : 973316
L2C-load_miss : 40089
L2C-rfo_access : 141252
L2C-rfo_hit : 133146
L2C-rfo_miss : 8106
L2C-prefetch_access : 7066927
L2C-prefetch_hit : 6994551
L2C-prefetch_miss : 72376
L2C-writeback_access : 350796
L2C-writeback_hit : 349911
L2C-writeback_miss : 885
L2C-prefetch_requested : 7442560
L2C-prefetch_issued : 7427958
L2C-prefetch_useful : 4220
L2C-prefetch_useless : 67105
L2C-Avg_miss_latency : 39.4066

LLC TOTAL     ACCESS:    1870973  HIT:    1858614  MISS:      12359
LLC LOAD      ACCESS:      39995  HIT:      37485  MISS:       2510
LLC RFO       ACCESS:       8106  HIT:       7859  MISS:        247
LLC PREFETCH  ACCESS:    1785488  HIT:    1775936  MISS:       9552
LLC WRITEBACK ACCESS:      37384  HIT:      37334  MISS:         50
LLC PREFETCH  REQUESTED:          0  ISSUED:          0  USEFUL:       2775  USELESS:       4143
LLC AVERAGE MISS LATENCY: 152.023 cycles
LLC

SHEET
LLC-total_access : 1870973
LLC-total_hit : 1858614
LLC-total_miss : 12359
LLC-load_access : 39995
LLC-load_hit : 37485
LLC-load_miss : 2510
LLC-rfo_access : 8106
LLC-rfo_hit : 7859
LLC-rfo_miss : 247
LLC-prefetch_access : 1785488
LLC-prefetch_hit : 1775936
LLC-prefetch_miss : 9552
LLC-writeback_access : 37384
LLC-writeback_hit : 37334
LLC-writeback_miss : 50
LLC-prefetch_requested : 0
LLC-prefetch_issued : 0
LLC-prefetch_useful : 2775
LLC-prefetch_useless : 4143
LLC-Avg_miss_latency : 152.023

Major fault: 0 Minor fault: 1227



Printing Logs
statHeadFound: 507526
statHeadMissing: 498804
statStreamBufferHit: 14148321
statPrefetchEntryFound: 5673291
statCompactorMatch: 12098963
statStreamTrackerLookup: 15154651
statRecord: 3055688
statGetPointer: 1006330
statEnqueuePrefetch: 17420173
statPrefetchQueueIsFull: 20099
StreamBufferHitRate: 0.933596
Regions' size: 1345
next_region_correct: 2357981
next_region_wrong: 696344
next_region_correct_prediction: 0.772014
statStreamBufferLookups: 1091134872
statL1iLookups: 139361384
statCompactorLookups: 545567436
morteza: start

SHEET
mana_table_access_counter : 5876066
mana_table_multiple_access_counter : 3382200
hobp_table_access_counter : 25969525
sab_access_counter : 19821612
srq_access_counter : 16701097

morteza: end
CPU 0 L1D next line prefetcher final stats

DRAM Statistics
 CHANNEL 0
 RQ ROW_BUFFER_HIT:       3678  ROW_BUFFER_MISS:       8625
 DBUS_CONGESTED:       5245
 WQ ROW_BUFFER_HIT:        806  ROW_BUFFER_MISS:       2364  FULL:          0

 AVG_CONGESTED_CYCLE: 5

CPU 0 Branch Prediction Accuracy: 99.926% MPKI: 0.14472 Average ROB Occupancy at Mispredict: 211.816

Branch types
NOT_BRANCH: 40220867 80.4417%
BRANCH_DIRECT_JUMP: 771319 1.54264%
BRANCH_INDIRECT: 108663 0.217326%
BRANCH_CONDITIONAL: 6375021 12.75%
BRANCH_DIRECT_CALL: 1049632 2.09926%
BRANCH_INDIRECT_CALL: 212280 0.42456%
BRANCH_RETURN: 1261922 2.52384%
BRANCH_OTHER: 0 0%

