Initialize SIGNATURE TABLE
ST_SET: 1
ST_WAY: 256
ST_TAG_BIT: 16
ST_TAG_MASK: ffff

Initialize PATTERN TABLE
PT_SET: 512
PT_WAY: 4
SIG_DELTA_BIT: 7
C_SIG_BIT: 4
C_DELTA_BIT: 4

Initialize PREFETCH FILTER
FILTER_SET: 1024
MANA initialize 
tds: 2 tdm: 4
size MANA SINGLE: 74 KB
size MANA NULTIPLE: 43 KB
size HOBPT: 5 KB
size SRQ: 0.14502 KB
size SABs: 0.290039 KB
size prefetch queue: 0.453125 KB
total: 122.888 KB

*** ChampSim Multicore Out-of-Order Simulator ***

Warmup Instructions: 50000000
Simulation Instructions: 50000000
Number of CPUs: 1
LLC sets: 2048
LLC ways: 16
Off-chip DRAM Size: 4096 MB Channels: 1 Width: 64-bit Data Rate: 3200 MT/s

CPU 0 runs /home/mbaradaran/ChampSim/dpc3_traces/server_033.champsimtrace.xz
CPU 0 L1D next line prefetcher
Heartbeat CPU 0 instructions: 10000001 cycles: 3344442 heartbeat IPC: 2.99004 cumulative IPC: 2.99004 (Simulation time: 0 hr 1 min 56 sec) 
Heartbeat CPU 0 instructions: 20000002 cycles: 6687161 heartbeat IPC: 2.99158 cumulative IPC: 2.99081 (Simulation time: 0 hr 3 min 50 sec) 
Heartbeat CPU 0 instructions: 30000001 cycles: 10020652 heartbeat IPC: 2.99986 cumulative IPC: 2.99382 (Simulation time: 0 hr 5 min 45 sec) 
Heartbeat CPU 0 instructions: 40000000 cycles: 13363243 heartbeat IPC: 2.99169 cumulative IPC: 2.99329 (Simulation time: 0 hr 7 min 43 sec) 
Heartbeat CPU 0 instructions: 50000000 cycles: 16705211 heartbeat IPC: 2.99225 cumulative IPC: 2.99308 (Simulation time: 0 hr 9 min 35 sec) 

Warmup complete CPU 0 instructions: 50000004 cycles: 16705212 (Simulation time: 0 hr 9 min 35 sec) 

Heartbeat CPU 0 instructions: 60000000 cycles: 23431489 heartbeat IPC: 1.48671 cumulative IPC: 1.48671 (Simulation time: 0 hr 11 min 34 sec) 
Heartbeat CPU 0 instructions: 70000000 cycles: 30115209 heartbeat IPC: 1.49617 cumulative IPC: 1.49142 (Simulation time: 0 hr 13 min 29 sec) 
Heartbeat CPU 0 instructions: 80000000 cycles: 37574555 heartbeat IPC: 1.3406 cumulative IPC: 1.43752 (Simulation time: 0 hr 15 min 27 sec) 
Heartbeat CPU 0 instructions: 90000003 cycles: 44335524 heartbeat IPC: 1.47908 cumulative IPC: 1.44769 (Simulation time: 0 hr 17 min 13 sec) 
Heartbeat CPU 0 instructions: 100000003 cycles: 51045091 heartbeat IPC: 1.49041 cumulative IPC: 1.45603 (Simulation time: 0 hr 19 min 5 sec) 
Finished CPU 0 instructions: 50000003 cycles: 34339880 cumulative IPC: 1.45603 (Simulation time: 0 hr 19 min 5 sec) 

ChampSim completed all CPUs

Region of Interest Statistics

CPU 0 cumulative IPC: 1.45603 instructions: 50000003 cycles: 34339880

SHEET
IPC : 1.45603

L1D TOTAL     ACCESS:   18387816  HIT:   16905406  MISS:    1482410
L1D LOAD      ACCESS:    6219313  HIT:    5536233  MISS:     683080
L1D RFO       ACCESS:    6162389  HIT:    6012561  MISS:     149828
L1D PREFETCH  ACCESS:    6006114  HIT:    5356612  MISS:     649502
L1D WRITEBACK ACCESS:          0  HIT:          0  MISS:          0
L1D PREFETCH  REQUESTED:    6261749  ISSUED:    6146731  USEFUL:     141178  USELESS:     508330
L1D AVERAGE MISS LATENCY: 24.0008 cycles
L1D

SHEET
L1D-total_access : 18387816
L1D-total_hit : 16905406
L1D-total_miss : 1482410
L1D-load_access : 6219313
L1D-load_hit : 5536233
L1D-load_miss : 683080
L1D-rfo_access : 6162389
L1D-rfo_hit : 6012561
L1D-rfo_miss : 149828
L1D-prefetch_access : 6006114
L1D-prefetch_hit : 5356612
L1D-prefetch_miss : 649502
L1D-writeback_access : 0
L1D-writeback_hit : 0
L1D-writeback_miss : 0
L1D-prefetch_requested : 6261749
L1D-prefetch_issued : 6146731
L1D-prefetch_useful : 141178
L1D-prefetch_useless : 508330
L1D-Avg_miss_latency : 24.0008

L1I TOTAL     ACCESS:   17748120  HIT:   12744657  MISS:    5003463
L1I LOAD      ACCESS:    9616341  HIT:    9092863  MISS:     523478
L1I RFO       ACCESS:          0  HIT:          0  MISS:          0
L1I PREFETCH  ACCESS:    8131779  HIT:    3651794  MISS:    4479985
L1I WRITEBACK ACCESS:          0  HIT:          0  MISS:          0
L1I PREFETCH  REQUESTED:    8768333  ISSUED:    8722554  USEFUL:    3331272  USELESS:    1148721
L1I AVERAGE MISS LATENCY: 14.99 cycles
L1I

SHEET
L1I-total_access : 17748120
L1I-total_hit : 12744657
L1I-total_miss : 5003463
L1I-load_access : 9616341
L1I-load_hit : 9092863
L1I-load_miss : 523478
L1I-rfo_access : 0
L1I-rfo_hit : 0
L1I-rfo_miss : 0
L1I-prefetch_access : 8131779
L1I-prefetch_hit : 3651794
L1I-prefetch_miss : 4479985
L1I-writeback_access : 0
L1I-writeback_hit : 0
L1I-writeback_miss : 0
L1I-prefetch_requested : 8768333
L1I-prefetch_issued : 8722554
L1I-prefetch_useful : 3331272
L1I-prefetch_useless : 1148721
L1I-Avg_miss_latency : 14.99

L2C TOTAL     ACCESS:    8746915  HIT:    8416578  MISS:     330337
L2C LOAD      ACCESS:    1042524  HIT:     911084  MISS:     131440
L2C RFO       ACCESS:     148483  HIT:     125355  MISS:      23128
L2C PREFETCH  ACCESS:    7189424  HIT:    7016871  MISS:     172553
L2C WRITEBACK ACCESS:     366484  HIT:     363268  MISS:       3216
L2C PREFETCH  REQUESTED:    7945058  ISSUED:    7921861  USEFUL:      12320  USELESS:     159577
L2C AVERAGE MISS LATENCY: 47.5964 cycles
L2C

SHEET
L2C-total_access : 8746915
L2C-total_hit : 8416578
L2C-total_miss : 330337
L2C-load_access : 1042524
L2C-load_hit : 911084
L2C-load_miss : 131440
L2C-rfo_access : 148483
L2C-rfo_hit : 125355
L2C-rfo_miss : 23128
L2C-prefetch_access : 7189424
L2C-prefetch_hit : 7016871
L2C-prefetch_miss : 172553
L2C-writeback_access : 366484
L2C-writeback_hit : 363268
L2C-writeback_miss : 3216
L2C-prefetch_requested : 7945058
L2C-prefetch_issued : 7921861
L2C-prefetch_useful : 12320
L2C-prefetch_useless : 159577
L2C-Avg_miss_latency : 47.5964

LLC TOTAL     ACCESS:    2336263  HIT:    2280124  MISS:      56139
LLC LOAD      ACCESS:     131395  HIT:     117768  MISS:      13627
LLC RFO       ACCESS:      23128  HIT:      20272  MISS:       2856
LLC PREFETCH  ACCESS:    2071264  HIT:    2031900  MISS:      39364
LLC WRITEBACK ACCESS:     110476  HIT:     110184  MISS:        292
LLC PREFETCH  REQUESTED:          0  ISSUED:          0  USEFUL:       6214  USELESS:      32191
LLC AVERAGE MISS LATENCY: 171.483 cycles
LLC

SHEET
LLC-total_access : 2336263
LLC-total_hit : 2280124
LLC-total_miss : 56139
LLC-load_access : 131395
LLC-load_hit : 117768
LLC-load_miss : 13627
LLC-rfo_access : 23128
LLC-rfo_hit : 20272
LLC-rfo_miss : 2856
LLC-prefetch_access : 2071264
LLC-prefetch_hit : 2031900
LLC-prefetch_miss : 39364
LLC-writeback_access : 110476
LLC-writeback_hit : 110184
LLC-writeback_miss : 292
LLC-prefetch_requested : 0
LLC-prefetch_issued : 0
LLC-prefetch_useful : 6214
LLC-prefetch_useless : 32191
LLC-Avg_miss_latency : 171.483

Major fault: 0 Minor fault: 2540



Printing Logs
statHeadFound: 508514
statHeadMissing: 493659
statStreamBufferHit: 14122950
statPrefetchEntryFound: 5667891
statCompactorMatch: 12075209
statStreamTrackerLookup: 15125123
statRecord: 3049914
statGetPointer: 1002173
statEnqueuePrefetch: 17369960
statPrefetchQueueIsFull: 13449
StreamBufferHitRate: 0.933741
Regions' size: 1408
next_region_correct: 2351245
next_region_wrong: 697243
next_region_correct_prediction: 0.771282
statStreamBufferLookups: 1089008856
statL1iLookups: 138959680
statCompactorLookups: 544504428
morteza: start

SHEET
mana_table_access_counter : 5673926
mana_table_multiple_access_counter : 3567486
hobp_table_access_counter : 25901093
sab_access_counter : 19790841
srq_access_counter : 16673392

morteza: end
CPU 0 L1D next line prefetcher final stats

DRAM Statistics
 CHANNEL 0
 RQ ROW_BUFFER_HIT:       9091  ROW_BUFFER_MISS:      46750
 DBUS_CONGESTED:      23967
 WQ ROW_BUFFER_HIT:       3236  ROW_BUFFER_MISS:      16048  FULL:          0

 AVG_CONGESTED_CYCLE: 5

CPU 0 Branch Prediction Accuracy: 99.9029% MPKI: 0.19006 Average ROB Occupancy at Mispredict: 193.58

Branch types
NOT_BRANCH: 40217131 80.4343%
BRANCH_DIRECT_JUMP: 774600 1.5492%
BRANCH_INDIRECT: 108806 0.217612%
BRANCH_CONDITIONAL: 6379334 12.7587%
BRANCH_DIRECT_CALL: 1048809 2.09762%
BRANCH_INDIRECT_CALL: 211109 0.422218%
BRANCH_RETURN: 1259926 2.51985%
BRANCH_OTHER: 0 0%

