Initialize SIGNATURE TABLE
ST_SET: 1
ST_WAY: 256
ST_TAG_BIT: 16
ST_TAG_MASK: ffff

Initialize PATTERN TABLE
PT_SET: 512
PT_WAY: 4
SIG_DELTA_BIT: 7
C_SIG_BIT: 4
C_DELTA_BIT: 4

Initialize PREFETCH FILTER
FILTER_SET: 1024
MANA initialize 
tds: 2 tdm: 4
size MANA SINGLE: 74 KB
size MANA NULTIPLE: 43 KB
size HOBPT: 5 KB
size SRQ: 0.14502 KB
size SABs: 0.290039 KB
size prefetch queue: 0.453125 KB
total: 122.888 KB

*** ChampSim Multicore Out-of-Order Simulator ***

Warmup Instructions: 50000000
Simulation Instructions: 50000000
Number of CPUs: 1
LLC sets: 2048
LLC ways: 16
Off-chip DRAM Size: 4096 MB Channels: 1 Width: 64-bit Data Rate: 3200 MT/s

CPU 0 runs /home/mbaradaran/ChampSim/dpc3_traces/server_012.champsimtrace.xz
CPU 0 L1D next line prefetcher
Heartbeat CPU 0 instructions: 10000002 cycles: 3202570 heartbeat IPC: 3.12249 cumulative IPC: 3.12249 (Simulation time: 0 hr 1 min 43 sec) 
Heartbeat CPU 0 instructions: 20000002 cycles: 6407366 heartbeat IPC: 3.12032 cumulative IPC: 3.12141 (Simulation time: 0 hr 3 min 29 sec) 
Heartbeat CPU 0 instructions: 30000001 cycles: 9613125 heartbeat IPC: 3.11939 cumulative IPC: 3.12073 (Simulation time: 0 hr 5 min 17 sec) 
Heartbeat CPU 0 instructions: 40000000 cycles: 12825185 heartbeat IPC: 3.11327 cumulative IPC: 3.11886 (Simulation time: 0 hr 7 min 6 sec) 
Heartbeat CPU 0 instructions: 50000003 cycles: 16029343 heartbeat IPC: 3.12095 cumulative IPC: 3.11928 (Simulation time: 0 hr 8 min 56 sec) 

Warmup complete CPU 0 instructions: 50000003 cycles: 16029343 (Simulation time: 0 hr 8 min 56 sec) 

Heartbeat CPU 0 instructions: 60000002 cycles: 23470851 heartbeat IPC: 1.34381 cumulative IPC: 1.34381 (Simulation time: 0 hr 10 min 29 sec) 
Heartbeat CPU 0 instructions: 70000000 cycles: 30931240 heartbeat IPC: 1.34041 cumulative IPC: 1.34211 (Simulation time: 0 hr 12 min 1 sec) 
Heartbeat CPU 0 instructions: 80000003 cycles: 38419520 heartbeat IPC: 1.33542 cumulative IPC: 1.33987 (Simulation time: 0 hr 13 min 32 sec) 
Heartbeat CPU 0 instructions: 90000001 cycles: 46185497 heartbeat IPC: 1.28767 cumulative IPC: 1.32643 (Simulation time: 0 hr 15 min 8 sec) 
Heartbeat CPU 0 instructions: 100000002 cycles: 53810359 heartbeat IPC: 1.3115 cumulative IPC: 1.32342 (Simulation time: 0 hr 16 min 42 sec) 
Finished CPU 0 instructions: 50000001 cycles: 37781017 cumulative IPC: 1.32342 (Simulation time: 0 hr 16 min 42 sec) 

ChampSim completed all CPUs

Region of Interest Statistics

CPU 0 cumulative IPC: 1.32342 instructions: 50000001 cycles: 37781017

SHEET
IPC : 1.32342

L1D TOTAL     ACCESS:   17556983  HIT:   16513672  MISS:    1043311
L1D LOAD      ACCESS:    6415358  HIT:    5928739  MISS:     486619
L1D RFO       ACCESS:    4968406  HIT:    4886332  MISS:      82074
L1D PREFETCH  ACCESS:    6173219  HIT:    5698601  MISS:     474618
L1D WRITEBACK ACCESS:          0  HIT:          0  MISS:          0
L1D PREFETCH  REQUESTED:    6450583  ISSUED:    6351123  USEFUL:     133913  USELESS:     340726
L1D AVERAGE MISS LATENCY: 41.3719 cycles
L1D

SHEET
L1D-total_access : 17556983
L1D-total_hit : 16513672
L1D-total_miss : 1043311
L1D-load_access : 6415358
L1D-load_hit : 5928739
L1D-load_miss : 486619
L1D-rfo_access : 4968406
L1D-rfo_hit : 4886332
L1D-rfo_miss : 82074
L1D-prefetch_access : 6173219
L1D-prefetch_hit : 5698601
L1D-prefetch_miss : 474618
L1D-writeback_access : 0
L1D-writeback_hit : 0
L1D-writeback_miss : 0
L1D-prefetch_requested : 6450583
L1D-prefetch_issued : 6351123
L1D-prefetch_useful : 133913
L1D-prefetch_useless : 340726
L1D-Avg_miss_latency : 41.3719

L1I TOTAL     ACCESS:   15533861  HIT:   12307246  MISS:    3226615
L1I LOAD      ACCESS:    8752967  HIT:    8349097  MISS:     403870
L1I RFO       ACCESS:          0  HIT:          0  MISS:          0
L1I PREFETCH  ACCESS:    6780894  HIT:    3958149  MISS:    2822745
L1I WRITEBACK ACCESS:          0  HIT:          0  MISS:          0
L1I PREFETCH  REQUESTED:    7780905  ISSUED:    7215605  USEFUL:    1654377  USELESS:    1168355
L1I AVERAGE MISS LATENCY: 24.2375 cycles
L1I

SHEET
L1I-total_access : 15533861
L1I-total_hit : 12307246
L1I-total_miss : 3226615
L1I-load_access : 8752967
L1I-load_hit : 8349097
L1I-load_miss : 403870
L1I-rfo_access : 0
L1I-rfo_hit : 0
L1I-rfo_miss : 0
L1I-prefetch_access : 6780894
L1I-prefetch_hit : 3958149
L1I-prefetch_miss : 2822745
L1I-writeback_access : 0
L1I-writeback_hit : 0
L1I-writeback_miss : 0
L1I-prefetch_requested : 7780905
L1I-prefetch_issued : 7215605
L1I-prefetch_useful : 1654377
L1I-prefetch_useless : 1168355
L1I-Avg_miss_latency : 24.2375

L2C TOTAL     ACCESS:    5552541  HIT:    4241447  MISS:    1311094
L2C LOAD      ACCESS:     761574  HIT:     455419  MISS:     306155
L2C RFO       ACCESS:      80719  HIT:      31417  MISS:      49302
L2C PREFETCH  ACCESS:    4434678  HIT:    3480785  MISS:     953893
L2C WRITEBACK ACCESS:     275570  HIT:     273826  MISS:       1744
L2C PREFETCH  REQUESTED:    5023991  ISSUED:    5016911  USEFUL:      84981  USELESS:     868412
L2C AVERAGE MISS LATENCY: 46.5428 cycles
L2C

SHEET
L2C-total_access : 5552541
L2C-total_hit : 4241447
L2C-total_miss : 1311094
L2C-load_access : 761574
L2C-load_hit : 455419
L2C-load_miss : 306155
L2C-rfo_access : 80719
L2C-rfo_hit : 31417
L2C-rfo_miss : 49302
L2C-prefetch_access : 4434678
L2C-prefetch_hit : 3480785
L2C-prefetch_miss : 953893
L2C-writeback_access : 275570
L2C-writeback_hit : 273826
L2C-writeback_miss : 1744
L2C-prefetch_requested : 5023991
L2C-prefetch_issued : 5016911
L2C-prefetch_useful : 84981
L2C-prefetch_useless : 868412
L2C-Avg_miss_latency : 46.5428

LLC TOTAL     ACCESS:    2697055  HIT:    2536430  MISS:     160625
LLC LOAD      ACCESS:     305968  HIT:     283994  MISS:      21974
LLC RFO       ACCESS:      49293  HIT:      38799  MISS:      10494
LLC PREFETCH  ACCESS:    2174162  HIT:    2046212  MISS:     127950
LLC WRITEBACK ACCESS:     167632  HIT:     167425  MISS:        207
LLC PREFETCH  REQUESTED:          0  ISSUED:          0  USEFUL:      11671  USELESS:     114883
LLC AVERAGE MISS LATENCY: 174.361 cycles
LLC

SHEET
LLC-total_access : 2697055
LLC-total_hit : 2536430
LLC-total_miss : 160625
LLC-load_access : 305968
LLC-load_hit : 283994
LLC-load_miss : 21974
LLC-rfo_access : 49293
LLC-rfo_hit : 38799
LLC-rfo_miss : 10494
LLC-prefetch_access : 2174163
LLC-prefetch_hit : 2046213
LLC-prefetch_miss : 127950
LLC-writeback_access : 167632
LLC-writeback_hit : 167425
LLC-writeback_miss : 207
LLC-prefetch_requested : 0
LLC-prefetch_issued : 0
LLC-prefetch_useful : 11671
LLC-prefetch_useless : 114883
LLC-Avg_miss_latency : 174.361

Major fault: 0 Minor fault: 5660



Printing Logs
statHeadFound: 437092
statHeadMissing: 375856
statStreamBufferHit: 11334572
statPrefetchEntryFound: 3963546
statCompactorMatch: 10275900
statStreamTrackerLookup: 12147520
statRecord: 1871620
statGetPointer: 812948
statEnqueuePrefetch: 14258280
statPrefetchQueueIsFull: 68628
StreamBufferHitRate: 0.933077
Regions' size: 3717
next_region_correct: 1533853
next_region_wrong: 334032
next_region_correct_prediction: 0.821171
statStreamBufferLookups: 874621440
statL1iLookups: 114066240
statCompactorLookups: 437310720
morteza: start

SHEET
mana_table_access_counter : 2936167
mana_table_multiple_access_counter : 3409714
hobp_table_access_counter : 18030550
sab_access_counter : 15298118
srq_access_counter : 12634246

morteza: end
CPU 0 L1D next line prefetcher final stats

DRAM Statistics
 CHANNEL 0
 RQ ROW_BUFFER_HIT:      24789  ROW_BUFFER_MISS:     135619
 DBUS_CONGESTED:      70960
 WQ ROW_BUFFER_HIT:      11023  ROW_BUFFER_MISS:      51108  FULL:          0

 AVG_CONGESTED_CYCLE: 5

CPU 0 Branch Prediction Accuracy: 99.4607% MPKI: 1.00288 Average ROB Occupancy at Mispredict: 102.71

Branch types
NOT_BRANCH: 40700972 81.4019%
BRANCH_DIRECT_JUMP: 469809 0.939618%
BRANCH_INDIRECT: 153732 0.307464%
BRANCH_CONDITIONAL: 6944062 13.8881%
BRANCH_DIRECT_CALL: 679877 1.35975%
BRANCH_INDIRECT_CALL: 168745 0.33749%
BRANCH_RETURN: 882491 1.76498%
BRANCH_OTHER: 0 0%

