Initialize SIGNATURE TABLE
ST_SET: 1
ST_WAY: 256
ST_TAG_BIT: 16
ST_TAG_MASK: ffff

Initialize PATTERN TABLE
PT_SET: 512
PT_WAY: 4
SIG_DELTA_BIT: 7
C_SIG_BIT: 4
C_DELTA_BIT: 4

Initialize PREFETCH FILTER
FILTER_SET: 1024
MANA initialize 
tds: 2 tdm: 4
size MANA SINGLE: 74 KB
size MANA NULTIPLE: 43 KB
size HOBPT: 5 KB
size SRQ: 0.14502 KB
size SABs: 0.290039 KB
size prefetch queue: 0.453125 KB
total: 122.888 KB

*** ChampSim Multicore Out-of-Order Simulator ***

Warmup Instructions: 50000000
Simulation Instructions: 50000000
Number of CPUs: 1
LLC sets: 2048
LLC ways: 16
Off-chip DRAM Size: 4096 MB Channels: 1 Width: 64-bit Data Rate: 3200 MT/s

CPU 0 runs /home/mbaradaran/ChampSim/dpc3_traces/spec_gobmk_002.champsimtrace.xz
CPU 0 L1D next line prefetcher
Heartbeat CPU 0 instructions: 10000001 cycles: 3287682 heartbeat IPC: 3.04166 cumulative IPC: 3.04166 (Simulation time: 0 hr 1 min 31 sec) 
Heartbeat CPU 0 instructions: 20000000 cycles: 6619482 heartbeat IPC: 3.00138 cumulative IPC: 3.02138 (Simulation time: 0 hr 2 min 40 sec) 
Heartbeat CPU 0 instructions: 30000000 cycles: 9957666 heartbeat IPC: 2.99564 cumulative IPC: 3.01275 (Simulation time: 0 hr 3 min 46 sec) 
Heartbeat CPU 0 instructions: 40000000 cycles: 13267328 heartbeat IPC: 3.02146 cumulative IPC: 3.01493 (Simulation time: 0 hr 4 min 54 sec) 
Heartbeat CPU 0 instructions: 50000003 cycles: 16531024 heartbeat IPC: 3.06401 cumulative IPC: 3.02462 (Simulation time: 0 hr 6 min 1 sec) 

Warmup complete CPU 0 instructions: 50000003 cycles: 16531024 (Simulation time: 0 hr 6 min 1 sec) 

Heartbeat CPU 0 instructions: 60000001 cycles: 24704781 heartbeat IPC: 1.22343 cumulative IPC: 1.22343 (Simulation time: 0 hr 6 min 51 sec) 
Heartbeat CPU 0 instructions: 70000000 cycles: 32808445 heartbeat IPC: 1.23401 cumulative IPC: 1.2287 (Simulation time: 0 hr 7 min 42 sec) 
Heartbeat CPU 0 instructions: 80000002 cycles: 40798015 heartbeat IPC: 1.25163 cumulative IPC: 1.23625 (Simulation time: 0 hr 8 min 34 sec) 
Heartbeat CPU 0 instructions: 90000000 cycles: 48956615 heartbeat IPC: 1.2257 cumulative IPC: 1.23359 (Simulation time: 0 hr 9 min 21 sec) 
Heartbeat CPU 0 instructions: 100000003 cycles: 57453943 heartbeat IPC: 1.17684 cumulative IPC: 1.22181 (Simulation time: 0 hr 10 min 11 sec) 
Finished CPU 0 instructions: 50000000 cycles: 40922919 cumulative IPC: 1.22181 (Simulation time: 0 hr 10 min 11 sec) 

ChampSim completed all CPUs

Region of Interest Statistics

CPU 0 cumulative IPC: 1.22181 instructions: 50000000 cycles: 40922919

SHEET
IPC : 1.22181

L1D TOTAL     ACCESS:   17903451  HIT:   17780324  MISS:     123127
L1D LOAD      ACCESS:    6794370  HIT:    6760191  MISS:      34179
L1D RFO       ACCESS:    4393576  HIT:    4350923  MISS:      42653
L1D PREFETCH  ACCESS:    6715505  HIT:    6669210  MISS:      46295
L1D WRITEBACK ACCESS:          0  HIT:          0  MISS:          0
L1D PREFETCH  REQUESTED:    6796704  ISSUED:    6729098  USEFUL:      17243  USELESS:      29235
L1D AVERAGE MISS LATENCY: 50.0655 cycles
L1D

SHEET
L1D-total_access : 17903451
L1D-total_hit : 17780324
L1D-total_miss : 123127
L1D-load_access : 6794370
L1D-load_hit : 6760191
L1D-load_miss : 34179
L1D-rfo_access : 4393576
L1D-rfo_hit : 4350923
L1D-rfo_miss : 42653
L1D-prefetch_access : 6715505
L1D-prefetch_hit : 6669210
L1D-prefetch_miss : 46295
L1D-writeback_access : 0
L1D-writeback_hit : 0
L1D-writeback_miss : 0
L1D-prefetch_requested : 6796704
L1D-prefetch_issued : 6729098
L1D-prefetch_useful : 17243
L1D-prefetch_useless : 29235
L1D-Avg_miss_latency : 50.0655

L1I TOTAL     ACCESS:   22279319  HIT:   18270020  MISS:    4009299
L1I LOAD      ACCESS:    8983361  HIT:    8411928  MISS:     571433
L1I RFO       ACCESS:          0  HIT:          0  MISS:          0
L1I PREFETCH  ACCESS:   13295958  HIT:    9858092  MISS:    3437866
L1I WRITEBACK ACCESS:          0  HIT:          0  MISS:          0
L1I PREFETCH  REQUESTED:   15726475  ISSUED:   14679563  USEFUL:    1725316  USELESS:    1712554
L1I AVERAGE MISS LATENCY: 14.4847 cycles
L1I

SHEET
L1I-total_access : 22279319
L1I-total_hit : 18270020
L1I-total_miss : 4009299
L1I-load_access : 8983361
L1I-load_hit : 8411928
L1I-load_miss : 571433
L1I-rfo_access : 0
L1I-rfo_hit : 0
L1I-rfo_miss : 0
L1I-prefetch_access : 13295958
L1I-prefetch_hit : 9858092
L1I-prefetch_miss : 3437866
L1I-writeback_access : 0
L1I-writeback_hit : 0
L1I-writeback_miss : 0
L1I-prefetch_requested : 15726475
L1I-prefetch_issued : 14679563
L1I-prefetch_useful : 1725316
L1I-prefetch_useless : 1712554
L1I-Avg_miss_latency : 14.4847

L2C TOTAL     ACCESS:    6186655  HIT:    6148622  MISS:      38033
L2C LOAD      ACCESS:     533135  HIT:     519300  MISS:      13835
L2C RFO       ACCESS:      42542  HIT:      39582  MISS:       2960
L2C PREFETCH  ACCESS:    5536777  HIT:    5515706  MISS:      21071
L2C WRITEBACK ACCESS:      74201  HIT:      74034  MISS:        167
L2C PREFETCH  REQUESTED:    4466467  ISSUED:    4466306  USEFUL:       2337  USELESS:      19115
L2C AVERAGE MISS LATENCY: 122.231 cycles
L2C

SHEET
L2C-total_access : 6186655
L2C-total_hit : 6148622
L2C-total_miss : 38033
L2C-load_access : 533135
L2C-load_hit : 519300
L2C-load_miss : 13835
L2C-rfo_access : 42542
L2C-rfo_hit : 39582
L2C-rfo_miss : 2960
L2C-prefetch_access : 5536777
L2C-prefetch_hit : 5515706
L2C-prefetch_miss : 21071
L2C-writeback_access : 74201
L2C-writeback_hit : 74034
L2C-writeback_miss : 167
L2C-prefetch_requested : 4466467
L2C-prefetch_issued : 4466306
L2C-prefetch_useful : 2337
L2C-prefetch_useless : 19115
L2C-Avg_miss_latency : 122.231

LLC TOTAL     ACCESS:     228758  HIT:     192830  MISS:      35928
LLC LOAD      ACCESS:      13835  HIT:       5277  MISS:       8558
LLC RFO       ACCESS:       2960  HIT:       1348  MISS:       1612
LLC PREFETCH  ACCESS:     193727  HIT:     168553  MISS:      25174
LLC WRITEBACK ACCESS:      18236  HIT:      17652  MISS:        584
LLC PREFETCH  REQUESTED:          0  ISSUED:          0  USEFUL:       2549  USELESS:      22515
LLC AVERAGE MISS LATENCY: 184.534 cycles
LLC

SHEET
LLC-total_access : 228758
LLC-total_hit : 192830
LLC-total_miss : 35928
LLC-load_access : 13835
LLC-load_hit : 5277
LLC-load_miss : 8558
LLC-rfo_access : 2960
LLC-rfo_hit : 1348
LLC-rfo_miss : 1612
LLC-prefetch_access : 193727
LLC-prefetch_hit : 168553
LLC-prefetch_miss : 25174
LLC-writeback_access : 18236
LLC-writeback_hit : 17652
LLC-writeback_miss : 584
LLC-prefetch_requested : 0
LLC-prefetch_issued : 0
LLC-prefetch_useful : 2549
LLC-prefetch_useless : 22515
LLC-Avg_miss_latency : 184.534

Major fault: 0 Minor fault: 2865



Printing Logs
statHeadFound: 1242273
statHeadMissing: 649108
statStreamBufferHit: 10916820
statPrefetchEntryFound: 6778849
statCompactorMatch: 11385415
statStreamTrackerLookup: 12808201
statRecord: 1422786
statGetPointer: 1891381
statEnqueuePrefetch: 27684215
statPrefetchQueueIsFull: 481082
StreamBufferHitRate: 0.85233
Regions' size: 3216
next_region_correct: 767146
next_region_wrong: 652406
next_region_correct_prediction: 0.540414
statStreamBufferLookups: 922190472
statL1iLookups: 221473720
statCompactorLookups: 461095236
morteza: start

SHEET
mana_table_access_counter : 1725757
mana_table_multiple_access_counter : 8203856
hobp_table_access_counter : 28089797
sab_access_counter : 17695669
srq_access_counter : 13012881

morteza: end
CPU 0 L1D next line prefetcher final stats

DRAM Statistics
 CHANNEL 0
 RQ ROW_BUFFER_HIT:       2785  ROW_BUFFER_MISS:      32559
 DBUS_CONGESTED:      18330
 WQ ROW_BUFFER_HIT:        696  ROW_BUFFER_MISS:      13852  FULL:          0

 AVG_CONGESTED_CYCLE: 4

CPU 0 Branch Prediction Accuracy: 93.9974% MPKI: 10.2447 Average ROB Occupancy at Mispredict: 34.6663

Branch types
NOT_BRANCH: 41466058 82.9321%
BRANCH_DIRECT_JUMP: 464313 0.928626%
BRANCH_INDIRECT: 32 6.4e-05%
BRANCH_CONDITIONAL: 7069453 14.1389%
BRANCH_DIRECT_CALL: 499587 0.999174%
BRANCH_INDIRECT_CALL: 342 0.000684%
BRANCH_RETURN: 499906 0.999812%
BRANCH_OTHER: 0 0%

