Initialize SIGNATURE TABLE
ST_SET: 1
ST_WAY: 256
ST_TAG_BIT: 16
ST_TAG_MASK: ffff

Initialize PATTERN TABLE
PT_SET: 512
PT_WAY: 4
SIG_DELTA_BIT: 7
C_SIG_BIT: 4
C_DELTA_BIT: 4

Initialize PREFETCH FILTER
FILTER_SET: 1024
MANA initialize 
tds: 2 tdm: 4
size MANA SINGLE: 74 KB
size MANA NULTIPLE: 43 KB
size HOBPT: 5 KB
size SRQ: 0.14502 KB
size SABs: 0.290039 KB
size prefetch queue: 0.453125 KB
total: 122.888 KB

*** ChampSim Multicore Out-of-Order Simulator ***

Warmup Instructions: 50000000
Simulation Instructions: 50000000
Number of CPUs: 1
LLC sets: 2048
LLC ways: 16
Off-chip DRAM Size: 4096 MB Channels: 1 Width: 64-bit Data Rate: 3200 MT/s

CPU 0 runs /home/mbaradaran/ChampSim/dpc3_traces/spec_x264_001.champsimtrace.xz
CPU 0 L1D next line prefetcher
Heartbeat CPU 0 instructions: 10000002 cycles: 3060046 heartbeat IPC: 3.26793 cumulative IPC: 3.26793 (Simulation time: 0 hr 1 min 11 sec) 
Heartbeat CPU 0 instructions: 20000002 cycles: 6110310 heartbeat IPC: 3.2784 cumulative IPC: 3.27316 (Simulation time: 0 hr 2 min 2 sec) 
Heartbeat CPU 0 instructions: 30000002 cycles: 9146117 heartbeat IPC: 3.29402 cumulative IPC: 3.28008 (Simulation time: 0 hr 2 min 50 sec) 
Heartbeat CPU 0 instructions: 40000000 cycles: 12190764 heartbeat IPC: 3.28445 cumulative IPC: 3.28117 (Simulation time: 0 hr 3 min 37 sec) 
Heartbeat CPU 0 instructions: 50000000 cycles: 15233875 heartbeat IPC: 3.28611 cumulative IPC: 3.28216 (Simulation time: 0 hr 4 min 25 sec) 

Warmup complete CPU 0 instructions: 50000004 cycles: 15233876 (Simulation time: 0 hr 4 min 25 sec) 

Heartbeat CPU 0 instructions: 60000002 cycles: 21235452 heartbeat IPC: 1.66623 cumulative IPC: 1.66623 (Simulation time: 0 hr 4 min 58 sec) 
Heartbeat CPU 0 instructions: 70000000 cycles: 27212618 heartbeat IPC: 1.67303 cumulative IPC: 1.66962 (Simulation time: 0 hr 5 min 30 sec) 
Heartbeat CPU 0 instructions: 80000003 cycles: 33347347 heartbeat IPC: 1.63006 cumulative IPC: 1.65623 (Simulation time: 0 hr 6 min 1 sec) 
Heartbeat CPU 0 instructions: 90000002 cycles: 39454988 heartbeat IPC: 1.63729 cumulative IPC: 1.65145 (Simulation time: 0 hr 6 min 32 sec) 
Heartbeat CPU 0 instructions: 100000002 cycles: 45418688 heartbeat IPC: 1.67681 cumulative IPC: 1.65646 (Simulation time: 0 hr 7 min 3 sec) 
Finished CPU 0 instructions: 50000002 cycles: 30184813 cumulative IPC: 1.65646 (Simulation time: 0 hr 7 min 3 sec) 

ChampSim completed all CPUs

Region of Interest Statistics

CPU 0 cumulative IPC: 1.65646 instructions: 50000002 cycles: 30184813

SHEET
IPC : 1.65646

L1D TOTAL     ACCESS:   13004191  HIT:   12842893  MISS:     161298
L1D LOAD      ACCESS:    5113784  HIT:    5058789  MISS:      54995
L1D RFO       ACCESS:    2882088  HIT:    2847776  MISS:      34312
L1D PREFETCH  ACCESS:    5008319  HIT:    4936328  MISS:      71991
L1D WRITEBACK ACCESS:          0  HIT:          0  MISS:          0
L1D PREFETCH  REQUESTED:    5130514  ISSUED:    5064020  USEFUL:      25976  USELESS:      45824
L1D AVERAGE MISS LATENCY: 39.2139 cycles
L1D

SHEET
L1D-total_access : 13004191
L1D-total_hit : 12842893
L1D-total_miss : 161298
L1D-load_access : 5113784
L1D-load_hit : 5058789
L1D-load_miss : 54995
L1D-rfo_access : 2882088
L1D-rfo_hit : 2847776
L1D-rfo_miss : 34312
L1D-prefetch_access : 5008319
L1D-prefetch_hit : 4936328
L1D-prefetch_miss : 71991
L1D-writeback_access : 0
L1D-writeback_hit : 0
L1D-writeback_miss : 0
L1D-prefetch_requested : 5130514
L1D-prefetch_issued : 5064020
L1D-prefetch_useful : 25976
L1D-prefetch_useless : 45824
L1D-Avg_miss_latency : 39.2139

L1I TOTAL     ACCESS:    9290163  HIT:    8831328  MISS:     458835
L1I LOAD      ACCESS:    8047766  HIT:    7995702  MISS:      52064
L1I RFO       ACCESS:          0  HIT:          0  MISS:          0
L1I PREFETCH  ACCESS:    1242397  HIT:     835626  MISS:     406771
L1I WRITEBACK ACCESS:          0  HIT:          0  MISS:          0
L1I PREFETCH  REQUESTED:    1389941  ISSUED:    1321569  USEFUL:     305164  USELESS:     101634
L1I AVERAGE MISS LATENCY: 14.8328 cycles
L1I

SHEET
L1I-total_access : 9290163
L1I-total_hit : 8831328
L1I-total_miss : 458835
L1I-load_access : 8047766
L1I-load_hit : 7995702
L1I-load_miss : 52064
L1I-rfo_access : 0
L1I-rfo_hit : 0
L1I-rfo_miss : 0
L1I-prefetch_access : 1242397
L1I-prefetch_hit : 835626
L1I-prefetch_miss : 406771
L1I-writeback_access : 0
L1I-writeback_hit : 0
L1I-writeback_miss : 0
L1I-prefetch_requested : 1389941
L1I-prefetch_issued : 1321569
L1I-prefetch_useful : 305164
L1I-prefetch_useless : 101634
L1I-Avg_miss_latency : 14.8328

L2C TOTAL     ACCESS:     905329  HIT:     866721  MISS:      38608
L2C LOAD      ACCESS:     100363  HIT:      95103  MISS:       5260
L2C RFO       ACCESS:      34137  HIT:      22031  MISS:      12106
L2C PREFETCH  ACCESS:     727647  HIT:     706485  MISS:      21162
L2C WRITEBACK ACCESS:      43182  HIT:      43102  MISS:         80
L2C PREFETCH  REQUESTED:     835487  ISSUED:     832820  USEFUL:       9126  USELESS:      12284
L2C AVERAGE MISS LATENCY: 101.639 cycles
L2C

SHEET
L2C-total_access : 905329
L2C-total_hit : 866721
L2C-total_miss : 38608
L2C-load_access : 100363
L2C-load_hit : 95103
L2C-load_miss : 5260
L2C-rfo_access : 34137
L2C-rfo_hit : 22031
L2C-rfo_miss : 12106
L2C-prefetch_access : 727647
L2C-prefetch_hit : 706485
L2C-prefetch_miss : 21162
L2C-writeback_access : 43182
L2C-writeback_hit : 43102
L2C-writeback_miss : 80
L2C-prefetch_requested : 835487
L2C-prefetch_issued : 832820
L2C-prefetch_useful : 9126
L2C-prefetch_useless : 12284
L2C-Avg_miss_latency : 101.639

LLC TOTAL     ACCESS:     161130  HIT:     132076  MISS:      29054
LLC LOAD      ACCESS:       5258  HIT:       3136  MISS:       2122
LLC RFO       ACCESS:      12106  HIT:        507  MISS:      11599
LLC PREFETCH  ACCESS:     130117  HIT:     114862  MISS:      15255
LLC WRITEBACK ACCESS:      13649  HIT:      13571  MISS:         78
LLC PREFETCH  REQUESTED:          0  ISSUED:          0  USEFUL:       1668  USELESS:      14081
LLC AVERAGE MISS LATENCY: 163.79 cycles
LLC

SHEET
LLC-total_access : 161130
LLC-total_hit : 132076
LLC-total_miss : 29054
LLC-load_access : 5258
LLC-load_hit : 3136
LLC-load_miss : 2122
LLC-rfo_access : 12106
LLC-rfo_hit : 507
LLC-rfo_miss : 11599
LLC-prefetch_access : 130117
LLC-prefetch_hit : 114862
LLC-prefetch_miss : 15255
LLC-writeback_access : 13649
LLC-writeback_hit : 13571
LLC-writeback_miss : 78
LLC-prefetch_requested : 0
LLC-prefetch_issued : 0
LLC-prefetch_useful : 1668
LLC-prefetch_useless : 14081
LLC-Avg_miss_latency : 163.79

Major fault: 0 Minor fault: 1336



Printing Logs
statHeadFound: 67401
statHeadMissing: 206749
statStreamBufferHit: 8263249
statPrefetchEntryFound: 604369
statCompactorMatch: 8334075
statStreamTrackerLookup: 8537399
statRecord: 203324
statGetPointer: 274150
statEnqueuePrefetch: 2515247
statPrefetchQueueIsFull: 1362
StreamBufferHitRate: 0.967888
Regions' size: 576
next_region_correct: 154926
next_region_wrong: 47804
next_region_correct_prediction: 0.764199
statStreamBufferLookups: 614692728
statL1iLookups: 20121976
statCompactorLookups: 307346364
morteza: start

SHEET
mana_table_access_counter : 353206
mana_table_multiple_access_counter : 524189
hobp_table_access_counter : 3613755
sab_access_counter : 8867618
srq_access_counter : 6981183

morteza: end
CPU 0 L1D next line prefetcher final stats

DRAM Statistics
 CHANNEL 0
 RQ ROW_BUFFER_HIT:       9533  ROW_BUFFER_MISS:      19443
 DBUS_CONGESTED:      12637
 WQ ROW_BUFFER_HIT:       2725  ROW_BUFFER_MISS:       9703  FULL:          0

 AVG_CONGESTED_CYCLE: 6

CPU 0 Branch Prediction Accuracy: 97.1633% MPKI: 1.73704 Average ROB Occupancy at Mispredict: 38.1756

Branch types
NOT_BRANCH: 46937921 93.8758%
BRANCH_DIRECT_JUMP: 170816 0.341632%
BRANCH_INDIRECT: 0 0%
BRANCH_CONDITIONAL: 2532774 5.06555%
BRANCH_DIRECT_CALL: 114227 0.228454%
BRANCH_INDIRECT_CALL: 64863 0.129726%
BRANCH_RETURN: 179089 0.358178%
BRANCH_OTHER: 0 0%

