Initialize SIGNATURE TABLE
ST_SET: 1
ST_WAY: 256
ST_TAG_BIT: 16
ST_TAG_MASK: ffff

Initialize PATTERN TABLE
PT_SET: 512
PT_WAY: 4
SIG_DELTA_BIT: 7
C_SIG_BIT: 4
C_DELTA_BIT: 4

Initialize PREFETCH FILTER
FILTER_SET: 1024
MANA initialize 
tds: 2 tdm: 4
size MANA SINGLE: 74 KB
size MANA NULTIPLE: 43 KB
size HOBPT: 5 KB
size SRQ: 0.14502 KB
size SABs: 0.290039 KB
size prefetch queue: 0.453125 KB
total: 122.888 KB

*** ChampSim Multicore Out-of-Order Simulator ***

Warmup Instructions: 50000000
Simulation Instructions: 50000000
Number of CPUs: 1
LLC sets: 2048
LLC ways: 16
Off-chip DRAM Size: 4096 MB Channels: 1 Width: 64-bit Data Rate: 3200 MT/s

CPU 0 runs /home/mbaradaran/ChampSim/dpc3_traces/spec_gcc_001.champsimtrace.xz
CPU 0 L1D next line prefetcher
Heartbeat CPU 0 instructions: 10000003 cycles: 3221273 heartbeat IPC: 3.10436 cumulative IPC: 3.10436 (Simulation time: 0 hr 1 min 45 sec) 
Heartbeat CPU 0 instructions: 20000002 cycles: 6468745 heartbeat IPC: 3.07932 cumulative IPC: 3.09179 (Simulation time: 0 hr 3 min 13 sec) 
Heartbeat CPU 0 instructions: 30000000 cycles: 9672655 heartbeat IPC: 3.12119 cumulative IPC: 3.10153 (Simulation time: 0 hr 4 min 23 sec) 
Heartbeat CPU 0 instructions: 40000001 cycles: 12913282 heartbeat IPC: 3.08582 cumulative IPC: 3.09759 (Simulation time: 0 hr 5 min 33 sec) 
Heartbeat CPU 0 instructions: 50000001 cycles: 16156390 heartbeat IPC: 3.08346 cumulative IPC: 3.09475 (Simulation time: 0 hr 6 min 44 sec) 

Warmup complete CPU 0 instructions: 50000001 cycles: 16156390 (Simulation time: 0 hr 6 min 44 sec) 

Heartbeat CPU 0 instructions: 60000000 cycles: 24245650 heartbeat IPC: 1.23621 cumulative IPC: 1.23621 (Simulation time: 0 hr 7 min 45 sec) 
Heartbeat CPU 0 instructions: 70000002 cycles: 32320655 heartbeat IPC: 1.23839 cumulative IPC: 1.2373 (Simulation time: 0 hr 8 min 50 sec) 
Heartbeat CPU 0 instructions: 80000000 cycles: 40142671 heartbeat IPC: 1.27844 cumulative IPC: 1.25071 (Simulation time: 0 hr 9 min 51 sec) 
Heartbeat CPU 0 instructions: 90000003 cycles: 48214062 heartbeat IPC: 1.23894 cumulative IPC: 1.24775 (Simulation time: 0 hr 10 min 52 sec) 
Heartbeat CPU 0 instructions: 100000000 cycles: 56554398 heartbeat IPC: 1.19899 cumulative IPC: 1.23768 (Simulation time: 0 hr 11 min 56 sec) 
Finished CPU 0 instructions: 50000000 cycles: 40398012 cumulative IPC: 1.23768 (Simulation time: 0 hr 11 min 56 sec) 

ChampSim completed all CPUs

Region of Interest Statistics

CPU 0 cumulative IPC: 1.23768 instructions: 50000000 cycles: 40398012

SHEET
IPC : 1.23768

L1D TOTAL     ACCESS:   19519370  HIT:   18414207  MISS:    1105163
L1D LOAD      ACCESS:    7329922  HIT:    6850553  MISS:     479369
L1D RFO       ACCESS:    5122527  HIT:    5042910  MISS:      79617
L1D PREFETCH  ACCESS:    7066921  HIT:    6520744  MISS:     546177
L1D WRITEBACK ACCESS:          0  HIT:          0  MISS:          0
L1D PREFETCH  REQUESTED:    7374637  ISSUED:    7273420  USEFUL:     275957  USELESS:     270232
L1D AVERAGE MISS LATENCY: 26.1585 cycles
L1D

SHEET
L1D-total_access : 19519370
L1D-total_hit : 18414207
L1D-total_miss : 1105163
L1D-load_access : 7329922
L1D-load_hit : 6850553
L1D-load_miss : 479369
L1D-rfo_access : 5122527
L1D-rfo_hit : 5042910
L1D-rfo_miss : 79617
L1D-prefetch_access : 7066921
L1D-prefetch_hit : 6520744
L1D-prefetch_miss : 546177
L1D-writeback_access : 0
L1D-writeback_hit : 0
L1D-writeback_miss : 0
L1D-prefetch_requested : 7374637
L1D-prefetch_issued : 7273420
L1D-prefetch_useful : 275957
L1D-prefetch_useless : 270232
L1D-Avg_miss_latency : 26.1585

L1I TOTAL     ACCESS:   17441650  HIT:   15373994  MISS:    2067656
L1I LOAD      ACCESS:    9372693  HIT:    9022645  MISS:     350048
L1I RFO       ACCESS:          0  HIT:          0  MISS:          0
L1I PREFETCH  ACCESS:    8068957  HIT:    6351349  MISS:    1717608
L1I WRITEBACK ACCESS:          0  HIT:          0  MISS:          0
L1I PREFETCH  REQUESTED:    8927733  ISSUED:    8700545  USEFUL:     883839  USELESS:     833749
L1I AVERAGE MISS LATENCY: 16.3896 cycles
L1I

SHEET
L1I-total_access : 17441650
L1I-total_hit : 15373994
L1I-total_miss : 2067656
L1I-load_access : 9372693
L1I-load_hit : 9022645
L1I-load_miss : 350048
L1I-rfo_access : 0
L1I-rfo_hit : 0
L1I-rfo_miss : 0
L1I-prefetch_access : 8068957
L1I-prefetch_hit : 6351349
L1I-prefetch_miss : 1717608
L1I-writeback_access : 0
L1I-writeback_hit : 0
L1I-writeback_miss : 0
L1I-prefetch_requested : 8927733
L1I-prefetch_issued : 8700545
L1I-prefetch_useful : 883839
L1I-prefetch_useless : 833749
L1I-Avg_miss_latency : 16.3896

L2C TOTAL     ACCESS:    4894556  HIT:    4620998  MISS:     273558
L2C LOAD      ACCESS:     746952  HIT:     661687  MISS:      85265
L2C RFO       ACCESS:      75030  HIT:      35716  MISS:      39314
L2C PREFETCH  ACCESS:    3818814  HIT:    3670329  MISS:     148485
L2C WRITEBACK ACCESS:     253760  HIT:     253266  MISS:        494
L2C PREFETCH  REQUESTED:    3405376  ISSUED:    3404910  USEFUL:      37956  USELESS:     109778
L2C AVERAGE MISS LATENCY: 65.1856 cycles
L2C

SHEET
L2C-total_access : 4894556
L2C-total_hit : 4620998
L2C-total_miss : 273558
L2C-load_access : 746952
L2C-load_hit : 661687
L2C-load_miss : 85265
L2C-rfo_access : 75030
L2C-rfo_hit : 35716
L2C-rfo_miss : 39314
L2C-prefetch_access : 3818814
L2C-prefetch_hit : 3670329
L2C-prefetch_miss : 148485
L2C-writeback_access : 253760
L2C-writeback_hit : 253266
L2C-writeback_miss : 494
L2C-prefetch_requested : 3405376
L2C-prefetch_issued : 3404910
L2C-prefetch_useful : 37956
L2C-prefetch_useless : 109778
L2C-Avg_miss_latency : 65.1856

LLC TOTAL     ACCESS:     914287  HIT:     833706  MISS:      80581
LLC LOAD      ACCESS:      85062  HIT:      75516  MISS:       9546
LLC RFO       ACCESS:      39312  HIT:      17980  MISS:      21332
LLC PREFETCH  ACCESS:     694995  HIT:     646448  MISS:      48547
LLC WRITEBACK ACCESS:      94918  HIT:      93762  MISS:       1156
LLC PREFETCH  REQUESTED:          0  ISSUED:          0  USEFUL:      12407  USELESS:      36235
LLC AVERAGE MISS LATENCY: 187.388 cycles
LLC

SHEET
LLC-total_access : 914287
LLC-total_hit : 833706
LLC-total_miss : 80581
LLC-load_access : 85062
LLC-load_hit : 75516
LLC-load_miss : 9546
LLC-rfo_access : 39312
LLC-rfo_hit : 17980
LLC-rfo_miss : 21332
LLC-prefetch_access : 694995
LLC-prefetch_hit : 646448
LLC-prefetch_miss : 48547
LLC-writeback_access : 94918
LLC-writeback_hit : 93762
LLC-writeback_miss : 1156
LLC-prefetch_requested : 0
LLC-prefetch_issued : 0
LLC-prefetch_useful : 12407
LLC-prefetch_useless : 36235
LLC-Avg_miss_latency : 187.388

Major fault: 0 Minor fault: 6985



Printing Logs
statHeadFound: 915665
statHeadMissing: 1113143
statStreamBufferHit: 13174354
statPrefetchEntryFound: 5577805
statCompactorMatch: 13787271
statStreamTrackerLookup: 15203162
statRecord: 1415891
statGetPointer: 2028808
statEnqueuePrefetch: 17992260
statPrefetchQueueIsFull: 149535
StreamBufferHitRate: 0.866554
Regions' size: 11766
next_region_correct: 902343
next_region_wrong: 501764
next_region_correct_prediction: 0.642645
statStreamBufferLookups: 1094627664
statL1iLookups: 143938080
statCompactorLookups: 547313832
morteza: start

SHEET
mana_table_access_counter : 2329566
mana_table_multiple_access_counter : 5773055
hobp_table_access_counter : 27694208
sab_access_counter : 18752159
srq_access_counter : 13717608

morteza: end
CPU 0 L1D next line prefetcher final stats

DRAM Statistics
 CHANNEL 0
 RQ ROW_BUFFER_HIT:      20508  ROW_BUFFER_MISS:      58909
 DBUS_CONGESTED:      41512
 WQ ROW_BUFFER_HIT:       4425  ROW_BUFFER_MISS:      25177  FULL:          0

 AVG_CONGESTED_CYCLE: 6

CPU 0 Branch Prediction Accuracy: 95.8872% MPKI: 9.67286 Average ROB Occupancy at Mispredict: 60.287

Branch types
NOT_BRANCH: 38240102 76.4802%
BRANCH_DIRECT_JUMP: 653296 1.30659%
BRANCH_INDIRECT: 37098 0.074196%
BRANCH_CONDITIONAL: 8897819 17.7956%
BRANCH_DIRECT_CALL: 992620 1.98524%
BRANCH_INDIRECT_CALL: 93046 0.186092%
BRANCH_RETURN: 1085674 2.17135%
BRANCH_OTHER: 0 0%

