Initialize SIGNATURE TABLE
ST_SET: 1
ST_WAY: 256
ST_TAG_BIT: 16
ST_TAG_MASK: ffff

Initialize PATTERN TABLE
PT_SET: 512
PT_WAY: 4
SIG_DELTA_BIT: 7
C_SIG_BIT: 4
C_DELTA_BIT: 4

Initialize PREFETCH FILTER
FILTER_SET: 1024
MANA initialize 
tds: 2 tdm: 4
size MANA SINGLE: 74 KB
size MANA NULTIPLE: 43 KB
size HOBPT: 5 KB
size SRQ: 0.14502 KB
size SABs: 0.290039 KB
size prefetch queue: 0.453125 KB
total: 122.888 KB

*** ChampSim Multicore Out-of-Order Simulator ***

Warmup Instructions: 50000000
Simulation Instructions: 50000000
Number of CPUs: 1
LLC sets: 2048
LLC ways: 16
Off-chip DRAM Size: 4096 MB Channels: 1 Width: 64-bit Data Rate: 3200 MT/s

CPU 0 runs /home/mbaradaran/ChampSim/dpc3_traces/spec_gobmk_001.champsimtrace.xz
CPU 0 L1D next line prefetcher
Heartbeat CPU 0 instructions: 10000003 cycles: 3512032 heartbeat IPC: 2.84736 cumulative IPC: 2.84736 (Simulation time: 0 hr 1 min 37 sec) 
Heartbeat CPU 0 instructions: 20000002 cycles: 6994851 heartbeat IPC: 2.87124 cumulative IPC: 2.85925 (Simulation time: 0 hr 2 min 57 sec) 
Heartbeat CPU 0 instructions: 30000002 cycles: 10514667 heartbeat IPC: 2.84106 cumulative IPC: 2.85316 (Simulation time: 0 hr 4 min 2 sec) 
Heartbeat CPU 0 instructions: 40000001 cycles: 14034723 heartbeat IPC: 2.84086 cumulative IPC: 2.85007 (Simulation time: 0 hr 5 min 5 sec) 
Heartbeat CPU 0 instructions: 50000001 cycles: 17575469 heartbeat IPC: 2.82426 cumulative IPC: 2.84487 (Simulation time: 0 hr 6 min 9 sec) 

Warmup complete CPU 0 instructions: 50000001 cycles: 17575469 (Simulation time: 0 hr 6 min 9 sec) 

Heartbeat CPU 0 instructions: 60000000 cycles: 26930074 heartbeat IPC: 1.06899 cumulative IPC: 1.06899 (Simulation time: 0 hr 6 min 59 sec) 
Heartbeat CPU 0 instructions: 70000002 cycles: 36030304 heartbeat IPC: 1.09887 cumulative IPC: 1.08373 (Simulation time: 0 hr 7 min 49 sec) 
Heartbeat CPU 0 instructions: 80000003 cycles: 45356430 heartbeat IPC: 1.07226 cumulative IPC: 1.07988 (Simulation time: 0 hr 8 min 37 sec) 
Heartbeat CPU 0 instructions: 90000001 cycles: 54271466 heartbeat IPC: 1.1217 cumulative IPC: 1.09004 (Simulation time: 0 hr 9 min 26 sec) 
Heartbeat CPU 0 instructions: 100000003 cycles: 63647795 heartbeat IPC: 1.06652 cumulative IPC: 1.08525 (Simulation time: 0 hr 10 min 14 sec) 
Finished CPU 0 instructions: 50000002 cycles: 46072326 cumulative IPC: 1.08525 (Simulation time: 0 hr 10 min 14 sec) 

ChampSim completed all CPUs

Region of Interest Statistics

CPU 0 cumulative IPC: 1.08525 instructions: 50000002 cycles: 46072326

SHEET
IPC : 1.08525

L1D TOTAL     ACCESS:   18189311  HIT:   17809676  MISS:     379635
L1D LOAD      ACCESS:    7310316  HIT:    7175555  MISS:     134761
L1D RFO       ACCESS:    3707624  HIT:    3603171  MISS:     104453
L1D PREFETCH  ACCESS:    7171371  HIT:    7030950  MISS:     140421
L1D WRITEBACK ACCESS:          0  HIT:          0  MISS:          0
L1D PREFETCH  REQUESTED:    7315426  ISSUED:    7232301  USEFUL:      45689  USELESS:      94738
L1D AVERAGE MISS LATENCY: 32.6412 cycles
L1D

SHEET
L1D-total_access : 18189311
L1D-total_hit : 17809676
L1D-total_miss : 379635
L1D-load_access : 7310316
L1D-load_hit : 7175555
L1D-load_miss : 134761
L1D-rfo_access : 3707624
L1D-rfo_hit : 3603171
L1D-rfo_miss : 104453
L1D-prefetch_access : 7171371
L1D-prefetch_hit : 7030950
L1D-prefetch_miss : 140421
L1D-writeback_access : 0
L1D-writeback_hit : 0
L1D-writeback_miss : 0
L1D-prefetch_requested : 7315426
L1D-prefetch_issued : 7232301
L1D-prefetch_useful : 45689
L1D-prefetch_useless : 94738
L1D-Avg_miss_latency : 32.6412

L1I TOTAL     ACCESS:   18788296  HIT:   15843816  MISS:    2944480
L1I LOAD      ACCESS:    9055027  HIT:    8629550  MISS:     425477
L1I RFO       ACCESS:          0  HIT:          0  MISS:          0
L1I PREFETCH  ACCESS:    9733269  HIT:    7214266  MISS:    2519003
L1I WRITEBACK ACCESS:          0  HIT:          0  MISS:          0
L1I PREFETCH  REQUESTED:   11535045  ISSUED:   10809647  USEFUL:    1238036  USELESS:    1280938
L1I AVERAGE MISS LATENCY: 14.7476 cycles
L1I

SHEET
L1I-total_access : 18788296
L1I-total_hit : 15843816
L1I-total_miss : 2944480
L1I-load_access : 9055027
L1I-load_hit : 8629550
L1I-load_miss : 425477
L1I-rfo_access : 0
L1I-rfo_hit : 0
L1I-rfo_miss : 0
L1I-prefetch_access : 9733269
L1I-prefetch_hit : 7214266
L1I-prefetch_miss : 2519003
L1I-writeback_access : 0
L1I-writeback_hit : 0
L1I-writeback_miss : 0
L1I-prefetch_requested : 11535045
L1I-prefetch_issued : 10809647
L1I-prefetch_useful : 1238036
L1I-prefetch_useless : 1280938
L1I-Avg_miss_latency : 14.7476

L2C TOTAL     ACCESS:    4988752  HIT:    4866168  MISS:     122584
L2C LOAD      ACCESS:     480576  HIT:     444616  MISS:      35960
L2C RFO       ACCESS:     104168  HIT:      71800  MISS:      32368
L2C PREFETCH  ACCESS:    4264698  HIT:    4210465  MISS:      54233
L2C WRITEBACK ACCESS:     139310  HIT:     139287  MISS:         23
L2C PREFETCH  REQUESTED:    3618303  ISSUED:    3618011  USEFUL:       4960  USELESS:      49570
L2C AVERAGE MISS LATENCY: 63.1458 cycles
L2C

SHEET
L2C-total_access : 4988752
L2C-total_hit : 4866168
L2C-total_miss : 122584
L2C-load_access : 480576
L2C-load_hit : 444616
L2C-load_miss : 35960
L2C-rfo_access : 104168
L2C-rfo_hit : 71800
L2C-rfo_miss : 32368
L2C-prefetch_access : 4264698
L2C-prefetch_hit : 4210465
L2C-prefetch_miss : 54233
L2C-writeback_access : 139310
L2C-writeback_hit : 139287
L2C-writeback_miss : 23
L2C-prefetch_requested : 3618303
L2C-prefetch_issued : 3618011
L2C-prefetch_useful : 4960
L2C-prefetch_useless : 49570
L2C-Avg_miss_latency : 63.1458

LLC TOTAL     ACCESS:     409788  HIT:     373389  MISS:      36399
LLC LOAD      ACCESS:      35959  HIT:      27851  MISS:       8108
LLC RFO       ACCESS:      32367  HIT:      27012  MISS:       5355
LLC PREFETCH  ACCESS:     298623  HIT:     275988  MISS:      22635
LLC WRITEBACK ACCESS:      42839  HIT:      42538  MISS:        301
LLC PREFETCH  REQUESTED:          0  ISSUED:          0  USEFUL:       1527  USELESS:      19243
LLC AVERAGE MISS LATENCY: 178.756 cycles
LLC

SHEET
LLC-total_access : 409788
LLC-total_hit : 373389
LLC-total_miss : 36399
LLC-load_access : 35959
LLC-load_hit : 27851
LLC-load_miss : 8108
LLC-rfo_access : 32367
LLC-rfo_hit : 27012
LLC-rfo_miss : 5355
LLC-prefetch_access : 298623
LLC-prefetch_hit : 275988
LLC-prefetch_miss : 22635
LLC-writeback_access : 42839
LLC-writeback_hit : 42538
LLC-writeback_miss : 301
LLC-prefetch_requested : 0
LLC-prefetch_issued : 0
LLC-prefetch_useful : 1527
LLC-prefetch_useless : 19243
LLC-Avg_miss_latency : 178.756

Major fault: 0 Minor fault: 4257



Printing Logs
statHeadFound: 859783
statHeadMissing: 339439
statStreamBufferHit: 11607353
statPrefetchEntryFound: 5031548
statCompactorMatch: 11777303
statStreamTrackerLookup: 12806575
statRecord: 1029272
statGetPointer: 1199222
statEnqueuePrefetch: 19905023
statPrefetchQueueIsFull: 207750
StreamBufferHitRate: 0.906359
Regions' size: 3113
next_region_correct: 542071
next_region_wrong: 484070
next_region_correct_prediction: 0.528262
statStreamBufferLookups: 922073400
statL1iLookups: 159240184
statCompactorLookups: 461036700
morteza: start

SHEET
mana_table_access_counter : 1450898
mana_table_multiple_access_counter : 5682012
hobp_table_access_counter : 18957726
sab_access_counter : 16638901
srq_access_counter : 12485536

morteza: end
CPU 0 L1D next line prefetcher final stats

DRAM Statistics
 CHANNEL 0
 RQ ROW_BUFFER_HIT:       3837  ROW_BUFFER_MISS:      32255
 DBUS_CONGESTED:      20929
 WQ ROW_BUFFER_HIT:       1192  ROW_BUFFER_MISS:      14294  FULL:          0

 AVG_CONGESTED_CYCLE: 4

CPU 0 Branch Prediction Accuracy: 94.7729% MPKI: 9.72684 Average ROB Occupancy at Mispredict: 49.4165

Branch types
NOT_BRANCH: 40695383 81.3908%
BRANCH_DIRECT_JUMP: 422107 0.844214%
BRANCH_INDIRECT: 65 0.00013%
BRANCH_CONDITIONAL: 8105005 16.21%
BRANCH_DIRECT_CALL: 374913 0.749826%
BRANCH_INDIRECT_CALL: 13657 0.027314%
BRANCH_RETURN: 388556 0.777112%
BRANCH_OTHER: 0 0%

