Initialize SIGNATURE TABLE
ST_SET: 1
ST_WAY: 256
ST_TAG_BIT: 16
ST_TAG_MASK: ffff

Initialize PATTERN TABLE
PT_SET: 512
PT_WAY: 4
SIG_DELTA_BIT: 7
C_SIG_BIT: 4
C_DELTA_BIT: 4

Initialize PREFETCH FILTER
FILTER_SET: 1024
MANA initialize 
tds: 2 tdm: 4
size MANA SINGLE: 74 KB
size MANA NULTIPLE: 43 KB
size HOBPT: 5 KB
size SRQ: 0.14502 KB
size SABs: 0.290039 KB
size prefetch queue: 0.453125 KB
total: 122.888 KB

*** ChampSim Multicore Out-of-Order Simulator ***

Warmup Instructions: 50000000
Simulation Instructions: 50000000
Number of CPUs: 1
LLC sets: 2048
LLC ways: 16
Off-chip DRAM Size: 4096 MB Channels: 1 Width: 64-bit Data Rate: 3200 MT/s

CPU 0 runs /home/mbaradaran/ChampSim/dpc3_traces/server_027.champsimtrace.xz
CPU 0 L1D next line prefetcher
Heartbeat CPU 0 instructions: 10000001 cycles: 3532520 heartbeat IPC: 2.83084 cumulative IPC: 2.83084 (Simulation time: 0 hr 1 min 58 sec) 
Heartbeat CPU 0 instructions: 20000001 cycles: 7070283 heartbeat IPC: 2.82664 cumulative IPC: 2.82874 (Simulation time: 0 hr 3 min 51 sec) 
Heartbeat CPU 0 instructions: 30000002 cycles: 10602320 heartbeat IPC: 2.83123 cumulative IPC: 2.82957 (Simulation time: 0 hr 5 min 49 sec) 
Heartbeat CPU 0 instructions: 40000000 cycles: 14140306 heartbeat IPC: 2.82647 cumulative IPC: 2.82879 (Simulation time: 0 hr 7 min 51 sec) 
Heartbeat CPU 0 instructions: 50000001 cycles: 17671896 heartbeat IPC: 2.83159 cumulative IPC: 2.82935 (Simulation time: 0 hr 9 min 45 sec) 

Warmup complete CPU 0 instructions: 50000001 cycles: 17671896 (Simulation time: 0 hr 9 min 45 sec) 

Heartbeat CPU 0 instructions: 60000002 cycles: 24742919 heartbeat IPC: 1.41422 cumulative IPC: 1.41422 (Simulation time: 0 hr 11 min 42 sec) 
Heartbeat CPU 0 instructions: 70000003 cycles: 31742646 heartbeat IPC: 1.42863 cumulative IPC: 1.42139 (Simulation time: 0 hr 13 min 34 sec) 
Heartbeat CPU 0 instructions: 80000002 cycles: 38775388 heartbeat IPC: 1.42192 cumulative IPC: 1.42157 (Simulation time: 0 hr 15 min 26 sec) 
Heartbeat CPU 0 instructions: 90000001 cycles: 45870616 heartbeat IPC: 1.4094 cumulative IPC: 1.4185 (Simulation time: 0 hr 17 min 15 sec) 
Heartbeat CPU 0 instructions: 100000002 cycles: 52843702 heartbeat IPC: 1.43409 cumulative IPC: 1.42159 (Simulation time: 0 hr 19 min 9 sec) 
Finished CPU 0 instructions: 50000001 cycles: 35171806 cumulative IPC: 1.42159 (Simulation time: 0 hr 19 min 9 sec) 

ChampSim completed all CPUs

Region of Interest Statistics

CPU 0 cumulative IPC: 1.42159 instructions: 50000001 cycles: 35171806

SHEET
IPC : 1.42159

L1D TOTAL     ACCESS:   20195452  HIT:   18593581  MISS:    1601871
L1D LOAD      ACCESS:    7092372  HIT:    6402559  MISS:     689813
L1D RFO       ACCESS:    6295504  HIT:    6009553  MISS:     285951
L1D PREFETCH  ACCESS:    6807576  HIT:    6181469  MISS:     626107
L1D WRITEBACK ACCESS:          0  HIT:          0  MISS:          0
L1D PREFETCH  REQUESTED:    7138323  ISSUED:    7014025  USEFUL:     151486  USELESS:     474632
L1D AVERAGE MISS LATENCY: 23.3763 cycles
L1D

SHEET
L1D-total_access : 20195452
L1D-total_hit : 18593581
L1D-total_miss : 1601871
L1D-load_access : 7092372
L1D-load_hit : 6402559
L1D-load_miss : 689813
L1D-rfo_access : 6295504
L1D-rfo_hit : 6009553
L1D-rfo_miss : 285951
L1D-prefetch_access : 6807576
L1D-prefetch_hit : 6181469
L1D-prefetch_miss : 626107
L1D-writeback_access : 0
L1D-writeback_hit : 0
L1D-writeback_miss : 0
L1D-prefetch_requested : 7138323
L1D-prefetch_issued : 7014025
L1D-prefetch_useful : 151486
L1D-prefetch_useless : 474632
L1D-Avg_miss_latency : 23.3763

L1I TOTAL     ACCESS:   17886315  HIT:   13626145  MISS:    4260170
L1I LOAD      ACCESS:    9301895  HIT:    8712587  MISS:     589308
L1I RFO       ACCESS:          0  HIT:          0  MISS:          0
L1I PREFETCH  ACCESS:    8584420  HIT:    4913558  MISS:    3670862
L1I WRITEBACK ACCESS:          0  HIT:          0  MISS:          0
L1I PREFETCH  REQUESTED:    9473277  ISSUED:    9307438  USEFUL:    2293009  USELESS:    1377766
L1I AVERAGE MISS LATENCY: 16.8886 cycles
L1I

SHEET
L1I-total_access : 17886315
L1I-total_hit : 13626145
L1I-total_miss : 4260170
L1I-load_access : 9301895
L1I-load_hit : 8712587
L1I-load_miss : 589308
L1I-rfo_access : 0
L1I-rfo_hit : 0
L1I-rfo_miss : 0
L1I-prefetch_access : 8584420
L1I-prefetch_hit : 4913558
L1I-prefetch_miss : 3670862
L1I-writeback_access : 0
L1I-writeback_hit : 0
L1I-writeback_miss : 0
L1I-prefetch_requested : 9473277
L1I-prefetch_issued : 9307438
L1I-prefetch_useful : 2293009
L1I-prefetch_useless : 1377766
L1I-Avg_miss_latency : 16.8886

L2C TOTAL     ACCESS:    7894007  HIT:    7193617  MISS:     700390
L2C LOAD      ACCESS:    1080112  HIT:     929052  MISS:     151060
L2C RFO       ACCESS:     283946  HIT:     196906  MISS:      87040
L2C PREFETCH  ACCESS:    5970671  HIT:    5511258  MISS:     459413
L2C WRITEBACK ACCESS:     559278  HIT:     556401  MISS:       2877
L2C PREFETCH  REQUESTED:    6814976  ISSUED:    6800126  USEFUL:      29567  USELESS:     428841
L2C AVERAGE MISS LATENCY: 39.4804 cycles
L2C

SHEET
L2C-total_access : 7894007
L2C-total_hit : 7193617
L2C-total_miss : 700390
L2C-load_access : 1080112
L2C-load_hit : 929052
L2C-load_miss : 151060
L2C-rfo_access : 283946
L2C-rfo_hit : 196906
L2C-rfo_miss : 87040
L2C-prefetch_access : 5970671
L2C-prefetch_hit : 5511258
L2C-prefetch_miss : 459413
L2C-writeback_access : 559278
L2C-writeback_hit : 556401
L2C-writeback_miss : 2877
L2C-prefetch_requested : 6814976
L2C-prefetch_issued : 6800126
L2C-prefetch_useful : 29567
L2C-prefetch_useless : 428841
L2C-Avg_miss_latency : 39.4804

LLC TOTAL     ACCESS:    2569261  HIT:    2535871  MISS:      33390
LLC LOAD      ACCESS:     150906  HIT:     147320  MISS:       3586
LLC RFO       ACCESS:      87036  HIT:      73176  MISS:      13860
LLC PREFETCH  ACCESS:    2189961  HIT:    2174191  MISS:      15770
LLC WRITEBACK ACCESS:     141358  HIT:     141184  MISS:        174
LLC PREFETCH  REQUESTED:          0  ISSUED:          0  USEFUL:       1379  USELESS:      13779
LLC AVERAGE MISS LATENCY: 184.851 cycles
LLC

SHEET
LLC-total_access : 2569261
LLC-total_hit : 2535871
LLC-total_miss : 33390
LLC-load_access : 150906
LLC-load_hit : 147320
LLC-load_miss : 3586
LLC-rfo_access : 87036
LLC-rfo_hit : 73176
LLC-rfo_miss : 13860
LLC-prefetch_access : 2189961
LLC-prefetch_hit : 2174191
LLC-prefetch_miss : 15770
LLC-writeback_access : 141358
LLC-writeback_hit : 141184
LLC-writeback_miss : 174
LLC-prefetch_requested : 0
LLC-prefetch_issued : 0
LLC-prefetch_useful : 1379
LLC-prefetch_useless : 13779
LLC-Avg_miss_latency : 184.851

Major fault: 0 Minor fault: 2539



Printing Logs
statHeadFound: 750506
statHeadMissing: 830068
statStreamBufferHit: 12653394
statPrefetchEntryFound: 6179207
statCompactorMatch: 11692672
statStreamTrackerLookup: 14233968
statRecord: 2541296
statGetPointer: 1580574
statEnqueuePrefetch: 18559732
statPrefetchQueueIsFull: 4861
StreamBufferHitRate: 0.888958
Regions' size: 2250
next_region_correct: 1719997
next_region_wrong: 819031
next_region_correct_prediction: 0.677423
statStreamBufferLookups: 1024845696
statL1iLookups: 148477856
statCompactorLookups: 512422848
morteza: start

SHEET
mana_table_access_counter : 4846039
mana_table_multiple_access_counter : 4633476
hobp_table_access_counter : 28999909
sab_access_counter : 18832601
srq_access_counter : 15426980

morteza: end
CPU 0 L1D next line prefetcher final stats

DRAM Statistics
 CHANNEL 0
 RQ ROW_BUFFER_HIT:      11132  ROW_BUFFER_MISS:      22083
 DBUS_CONGESTED:      23511
 WQ ROW_BUFFER_HIT:       1626  ROW_BUFFER_MISS:      14512  FULL:          0

 AVG_CONGESTED_CYCLE: 6

CPU 0 Branch Prediction Accuracy: 99.8082% MPKI: 0.35064 Average ROB Occupancy at Mispredict: 159.782

Branch types
NOT_BRANCH: 40857513 81.715%
BRANCH_DIRECT_JUMP: 526635 1.05327%
BRANCH_INDIRECT: 205902 0.411804%
BRANCH_CONDITIONAL: 6184050 12.3681%
BRANCH_DIRECT_CALL: 938468 1.87694%
BRANCH_INDIRECT_CALL: 174486 0.348972%
BRANCH_RETURN: 1112959 2.22592%
BRANCH_OTHER: 0 0%

