Initialize SIGNATURE TABLE
ST_SET: 1
ST_WAY: 256
ST_TAG_BIT: 16
ST_TAG_MASK: ffff

Initialize PATTERN TABLE
PT_SET: 512
PT_WAY: 4
SIG_DELTA_BIT: 7
C_SIG_BIT: 4
C_DELTA_BIT: 4

Initialize PREFETCH FILTER
FILTER_SET: 1024
MANA initialize 
tds: 2 tdm: 4
size MANA SINGLE: 74 KB
size MANA NULTIPLE: 43 KB
size HOBPT: 5 KB
size SRQ: 0.14502 KB
size SABs: 0.290039 KB
size prefetch queue: 0.453125 KB
total: 122.888 KB

*** ChampSim Multicore Out-of-Order Simulator ***

Warmup Instructions: 50000000
Simulation Instructions: 50000000
Number of CPUs: 1
LLC sets: 2048
LLC ways: 16
Off-chip DRAM Size: 4096 MB Channels: 1 Width: 64-bit Data Rate: 3200 MT/s

CPU 0 runs /home/mbaradaran/ChampSim/dpc3_traces/server_009.champsimtrace.xz
CPU 0 L1D next line prefetcher
Heartbeat CPU 0 instructions: 10000003 cycles: 3200097 heartbeat IPC: 3.12491 cumulative IPC: 3.12491 (Simulation time: 0 hr 1 min 40 sec) 
Heartbeat CPU 0 instructions: 20000001 cycles: 6393631 heartbeat IPC: 3.13133 cumulative IPC: 3.12811 (Simulation time: 0 hr 3 min 23 sec) 
Heartbeat CPU 0 instructions: 30000002 cycles: 9601870 heartbeat IPC: 3.11698 cumulative IPC: 3.12439 (Simulation time: 0 hr 5 min 15 sec) 
Heartbeat CPU 0 instructions: 40000003 cycles: 12806545 heartbeat IPC: 3.12044 cumulative IPC: 3.1234 (Simulation time: 0 hr 6 min 59 sec) 
Heartbeat CPU 0 instructions: 50000000 cycles: 16067795 heartbeat IPC: 3.06631 cumulative IPC: 3.11181 (Simulation time: 0 hr 8 min 50 sec) 

Warmup complete CPU 0 instructions: 50000004 cycles: 16067796 (Simulation time: 0 hr 8 min 50 sec) 

Heartbeat CPU 0 instructions: 60000002 cycles: 31765103 heartbeat IPC: 0.637052 cumulative IPC: 0.637052 (Simulation time: 0 hr 11 min 5 sec) 
Heartbeat CPU 0 instructions: 70000003 cycles: 52801034 heartbeat IPC: 0.475377 cumulative IPC: 0.544466 (Simulation time: 0 hr 13 min 46 sec) 
Heartbeat CPU 0 instructions: 80000000 cycles: 60043569 heartbeat IPC: 1.38073 cumulative IPC: 0.682194 (Simulation time: 0 hr 15 min 23 sec) 
Heartbeat CPU 0 instructions: 90000001 cycles: 67414731 heartbeat IPC: 1.35664 cumulative IPC: 0.779014 (Simulation time: 0 hr 16 min 59 sec) 
Heartbeat CPU 0 instructions: 100000003 cycles: 74679382 heartbeat IPC: 1.37653 cumulative IPC: 0.853074 (Simulation time: 0 hr 18 min 39 sec) 
Finished CPU 0 instructions: 50000003 cycles: 58611587 cumulative IPC: 0.853074 (Simulation time: 0 hr 18 min 39 sec) 

ChampSim completed all CPUs

Region of Interest Statistics

CPU 0 cumulative IPC: 0.853074 instructions: 50000003 cycles: 58611587

SHEET
IPC : 0.853074

L1D TOTAL     ACCESS:   21683369  HIT:   17103643  MISS:    4579726
L1D LOAD      ACCESS:    8656428  HIT:    6376429  MISS:    2279999
L1D RFO       ACCESS:    4583170  HIT:    4478621  MISS:     104549
L1D PREFETCH  ACCESS:    8443771  HIT:    6248593  MISS:    2195178
L1D WRITEBACK ACCESS:          0  HIT:          0  MISS:          0
L1D PREFETCH  REQUESTED:    8689781  ISSUED:    8592624  USEFUL:     106553  USELESS:    2088623
L1D AVERAGE MISS LATENCY: 20.3342 cycles
L1D

SHEET
L1D-total_access : 21683369
L1D-total_hit : 17103643
L1D-total_miss : 4579726
L1D-load_access : 8656428
L1D-load_hit : 6376429
L1D-load_miss : 2279999
L1D-rfo_access : 4583170
L1D-rfo_hit : 4478621
L1D-rfo_miss : 104549
L1D-prefetch_access : 8443771
L1D-prefetch_hit : 6248593
L1D-prefetch_miss : 2195178
L1D-writeback_access : 0
L1D-writeback_hit : 0
L1D-writeback_miss : 0
L1D-prefetch_requested : 8689781
L1D-prefetch_issued : 8592624
L1D-prefetch_useful : 106553
L1D-prefetch_useless : 2088623
L1D-Avg_miss_latency : 20.3342

L1I TOTAL     ACCESS:   17330357  HIT:   15669628  MISS:    1660729
L1I LOAD      ACCESS:   10743540  HIT:   10540856  MISS:     202684
L1I RFO       ACCESS:          0  HIT:          0  MISS:          0
L1I PREFETCH  ACCESS:    6586817  HIT:    5128772  MISS:    1458045
L1I WRITEBACK ACCESS:          0  HIT:          0  MISS:          0
L1I PREFETCH  REQUESTED:    7292406  ISSUED:    6871679  USEFUL:     907881  USELESS:     550119
L1I AVERAGE MISS LATENCY: 29.6662 cycles
L1I

SHEET
L1I-total_access : 17330357
L1I-total_hit : 15669628
L1I-total_miss : 1660729
L1I-load_access : 10743540
L1I-load_hit : 10540856
L1I-load_miss : 202684
L1I-rfo_access : 0
L1I-rfo_hit : 0
L1I-rfo_miss : 0
L1I-prefetch_access : 6586817
L1I-prefetch_hit : 5128772
L1I-prefetch_miss : 1458045
L1I-writeback_access : 0
L1I-writeback_hit : 0
L1I-writeback_miss : 0
L1I-prefetch_requested : 7292406
L1I-prefetch_issued : 6871679
L1I-prefetch_useful : 907881
L1I-prefetch_useless : 550119
L1I-Avg_miss_latency : 29.6662

L2C TOTAL     ACCESS:    7915069  HIT:    6844020  MISS:    1071049
L2C LOAD      ACCESS:    2398117  HIT:    2144618  MISS:     253499
L2C RFO       ACCESS:     103558  HIT:      62052  MISS:      41506
L2C PREFETCH  ACCESS:    5156503  HIT:    4382600  MISS:     773903
L2C WRITEBACK ACCESS:     256891  HIT:     254750  MISS:       2141
L2C PREFETCH  REQUESTED:    7863812  ISSUED:    7860001  USEFUL:      38402  USELESS:     734133
L2C AVERAGE MISS LATENCY: 46.6808 cycles
L2C

SHEET
L2C-total_access : 7915069
L2C-total_hit : 6844020
L2C-total_miss : 1071049
L2C-load_access : 2398117
L2C-load_hit : 2144618
L2C-load_miss : 253499
L2C-rfo_access : 103558
L2C-rfo_hit : 62052
L2C-rfo_miss : 41506
L2C-prefetch_access : 5156503
L2C-prefetch_hit : 4382600
L2C-prefetch_miss : 773903
L2C-writeback_access : 256891
L2C-writeback_hit : 254750
L2C-writeback_miss : 2141
L2C-prefetch_requested : 7863812
L2C-prefetch_issued : 7860001
L2C-prefetch_useful : 38402
L2C-prefetch_useless : 734133
L2C-Avg_miss_latency : 46.6808

LLC TOTAL     ACCESS:    2535476  HIT:    2409371  MISS:     126105
LLC LOAD      ACCESS:     253170  HIT:     233994  MISS:      19176
LLC RFO       ACCESS:      41499  HIT:      32742  MISS:       8757
LLC PREFETCH  ACCESS:    2098639  HIT:    2000625  MISS:      98014
LLC WRITEBACK ACCESS:     142168  HIT:     142010  MISS:        158
LLC PREFETCH  REQUESTED:          0  ISSUED:          0  USEFUL:      10552  USELESS:      84350
LLC AVERAGE MISS LATENCY: 173.398 cycles
LLC

SHEET
LLC-total_access : 2535476
LLC-total_hit : 2409371
LLC-total_miss : 126105
LLC-load_access : 253170
LLC-load_hit : 233994
LLC-load_miss : 19176
LLC-rfo_access : 41499
LLC-rfo_hit : 32742
LLC-rfo_miss : 8757
LLC-prefetch_access : 2098639
LLC-prefetch_hit : 2000625
LLC-prefetch_miss : 98014
LLC-writeback_access : 142168
LLC-writeback_hit : 142010
LLC-writeback_miss : 158
LLC-prefetch_requested : 0
LLC-prefetch_issued : 0
LLC-prefetch_useful : 10552
LLC-prefetch_useless : 84350
LLC-Avg_miss_latency : 173.398

Major fault: 0 Minor fault: 6415



Printing Logs
statHeadFound: 438391
statHeadMissing: 645473
statStreamBufferHit: 12511117
statPrefetchEntryFound: 4119373
statCompactorMatch: 11667201
statStreamTrackerLookup: 13594981
statRecord: 1927780
statGetPointer: 1083864
statEnqueuePrefetch: 14087579
statPrefetchQueueIsFull: 32674
StreamBufferHitRate: 0.920275
Regions' size: 4291
next_region_correct: 1609614
next_region_wrong: 313857
next_region_correct_prediction: 0.836828
statStreamBufferLookups: 978838632
statL1iLookups: 112700632
statCompactorLookups: 489419316
morteza: start

SHEET
mana_table_access_counter : 2995790
mana_table_multiple_access_counter : 3528053
hobp_table_access_counter : 20543442
sab_access_counter : 16630490
srq_access_counter : 13202617

morteza: end
CPU 0 L1D next line prefetcher final stats

DRAM Statistics
 CHANNEL 0
 RQ ROW_BUFFER_HIT:      24410  ROW_BUFFER_MISS:     101530
 DBUS_CONGESTED:      58623
 WQ ROW_BUFFER_HIT:       8735  ROW_BUFFER_MISS:      38003  FULL:          0

 AVG_CONGESTED_CYCLE: 5

CPU 0 Branch Prediction Accuracy: 99.4713% MPKI: 1.11484 Average ROB Occupancy at Mispredict: 111.299

Branch types
NOT_BRANCH: 39456615 78.9132%
BRANCH_DIRECT_JUMP: 445350 0.8907%
BRANCH_INDIRECT: 131149 0.262298%
BRANCH_CONDITIONAL: 8130196 16.2604%
BRANCH_DIRECT_CALL: 732485 1.46497%
BRANCH_INDIRECT_CALL: 172369 0.344738%
BRANCH_RETURN: 931558 1.86312%
BRANCH_OTHER: 0 0%

