Initialize SIGNATURE TABLE
ST_SET: 1
ST_WAY: 256
ST_TAG_BIT: 16
ST_TAG_MASK: ffff

Initialize PATTERN TABLE
PT_SET: 512
PT_WAY: 4
SIG_DELTA_BIT: 7
C_SIG_BIT: 4
C_DELTA_BIT: 4

Initialize PREFETCH FILTER
FILTER_SET: 1024
MANA initialize 
tds: 2 tdm: 4
size MANA SINGLE: 74 KB
size MANA NULTIPLE: 43 KB
size HOBPT: 5 KB
size SRQ: 0.14502 KB
size SABs: 0.290039 KB
size prefetch queue: 0.453125 KB
total: 122.888 KB

*** ChampSim Multicore Out-of-Order Simulator ***

Warmup Instructions: 50000000
Simulation Instructions: 50000000
Number of CPUs: 1
LLC sets: 2048
LLC ways: 16
Off-chip DRAM Size: 4096 MB Channels: 1 Width: 64-bit Data Rate: 3200 MT/s

CPU 0 runs /home/mbaradaran/ChampSim/dpc3_traces/client_001.champsimtrace.xz
CPU 0 L1D next line prefetcher
Heartbeat CPU 0 instructions: 10000003 cycles: 3410619 heartbeat IPC: 2.93202 cumulative IPC: 2.93202 (Simulation time: 0 hr 1 min 12 sec) 
Heartbeat CPU 0 instructions: 20000001 cycles: 7119130 heartbeat IPC: 2.6965 cumulative IPC: 2.80933 (Simulation time: 0 hr 2 min 31 sec) 
Heartbeat CPU 0 instructions: 30000001 cycles: 10482154 heartbeat IPC: 2.97351 cumulative IPC: 2.86201 (Simulation time: 0 hr 3 min 44 sec) 
Heartbeat CPU 0 instructions: 40000003 cycles: 14352171 heartbeat IPC: 2.58397 cumulative IPC: 2.78703 (Simulation time: 0 hr 5 min 14 sec) 
Heartbeat CPU 0 instructions: 50000003 cycles: 17649269 heartbeat IPC: 3.03297 cumulative IPC: 2.83298 (Simulation time: 0 hr 6 min 27 sec) 

Warmup complete CPU 0 instructions: 50000003 cycles: 17649269 (Simulation time: 0 hr 6 min 27 sec) 

Heartbeat CPU 0 instructions: 60000000 cycles: 26729121 heartbeat IPC: 1.10134 cumulative IPC: 1.10134 (Simulation time: 0 hr 7 min 55 sec) 
Heartbeat CPU 0 instructions: 70000000 cycles: 33189957 heartbeat IPC: 1.54779 cumulative IPC: 1.28694 (Simulation time: 0 hr 9 min 2 sec) 
Heartbeat CPU 0 instructions: 80000002 cycles: 42552734 heartbeat IPC: 1.06806 cumulative IPC: 1.20465 (Simulation time: 0 hr 10 min 36 sec) 
Heartbeat CPU 0 instructions: 90000000 cycles: 48889273 heartbeat IPC: 1.57815 cumulative IPC: 1.28041 (Simulation time: 0 hr 11 min 39 sec) 
Heartbeat CPU 0 instructions: 100000002 cycles: 57754887 heartbeat IPC: 1.12795 cumulative IPC: 1.24671 (Simulation time: 0 hr 12 min 45 sec) 
Finished CPU 0 instructions: 50000003 cycles: 40105619 cumulative IPC: 1.24671 (Simulation time: 0 hr 12 min 45 sec) 

ChampSim completed all CPUs

Region of Interest Statistics

CPU 0 cumulative IPC: 1.24671 instructions: 50000003 cycles: 40105619

SHEET
IPC : 1.24671

L1D TOTAL     ACCESS:   21279529  HIT:   20443053  MISS:     836476
L1D LOAD      ACCESS:    8840020  HIT:    8445545  MISS:     394475
L1D RFO       ACCESS:    4041328  HIT:    3982312  MISS:      59016
L1D PREFETCH  ACCESS:    8398181  HIT:    8015196  MISS:     382985
L1D WRITEBACK ACCESS:          0  HIT:          0  MISS:          0
L1D PREFETCH  REQUESTED:    8885635  ISSUED:    8576913  USEFUL:     129938  USELESS:     253020
L1D AVERAGE MISS LATENCY: 47.5937 cycles
L1D

SHEET
L1D-total_access : 21279529
L1D-total_hit : 20443053
L1D-total_miss : 836476
L1D-load_access : 8840020
L1D-load_hit : 8445545
L1D-load_miss : 394475
L1D-rfo_access : 4041328
L1D-rfo_hit : 3982312
L1D-rfo_miss : 59016
L1D-prefetch_access : 8398181
L1D-prefetch_hit : 8015196
L1D-prefetch_miss : 382985
L1D-writeback_access : 0
L1D-writeback_hit : 0
L1D-writeback_miss : 0
L1D-prefetch_requested : 8885635
L1D-prefetch_issued : 8576913
L1D-prefetch_useful : 129938
L1D-prefetch_useless : 253020
L1D-Avg_miss_latency : 47.5937
L1D-Morteza_fill_l2_prefetches : 0

L1I TOTAL     ACCESS:   13183327  HIT:   12600125  MISS:     583202
L1I LOAD      ACCESS:    8925103  HIT:    8846615  MISS:      78488
L1I RFO       ACCESS:          0  HIT:          0  MISS:          0
L1I PREFETCH  ACCESS:    4258224  HIT:    3753510  MISS:     504714
L1I WRITEBACK ACCESS:          0  HIT:          0  MISS:          0
L1I PREFETCH  REQUESTED:    4521769  ISSUED:    4506118  USEFUL:     418810  USELESS:      85895
L1I AVERAGE MISS LATENCY: 18.3864 cycles
L1I

SHEET
L1I-total_access : 13183327
L1I-total_hit : 12600125
L1I-total_miss : 583202
L1I-load_access : 8925103
L1I-load_hit : 8846615
L1I-load_miss : 78488
L1I-rfo_access : 0
L1I-rfo_hit : 0
L1I-rfo_miss : 0
L1I-prefetch_access : 4258224
L1I-prefetch_hit : 3753510
L1I-prefetch_miss : 504714
L1I-writeback_access : 0
L1I-writeback_hit : 0
L1I-writeback_miss : 0
L1I-prefetch_requested : 4521769
L1I-prefetch_issued : 4506118
L1I-prefetch_useful : 418810
L1I-prefetch_useless : 85895
L1I-Avg_miss_latency : 18.3864
L1I-Morteza_fill_l2_prefetches : 0

L2C TOTAL     ACCESS:    2167694  HIT:    1861494  MISS:     306200
L2C LOAD      ACCESS:     424384  HIT:     310382  MISS:     114002
L2C RFO       ACCESS:      58270  HIT:      21361  MISS:      36909
L2C PREFETCH  ACCESS:    1495439  HIT:    1340312  MISS:     155127
L2C WRITEBACK ACCESS:     189601  HIT:     189439  MISS:        162
L2C PREFETCH  REQUESTED:    1952473  ISSUED:    1949119  USEFUL:      14335  USELESS:     139922
L2C AVERAGE MISS LATENCY: 104.662 cycles
L2C

SHEET
L2C-total_access : 2167694
L2C-total_hit : 1861494
L2C-total_miss : 306200
L2C-load_access : 424384
L2C-load_hit : 310382
L2C-load_miss : 114002
L2C-rfo_access : 58270
L2C-rfo_hit : 21361
L2C-rfo_miss : 36909
L2C-prefetch_access : 1495439
L2C-prefetch_hit : 1340312
L2C-prefetch_miss : 155127
L2C-writeback_access : 189601
L2C-writeback_hit : 189439
L2C-writeback_miss : 162
L2C-prefetch_requested : 1952473
L2C-prefetch_issued : 1949119
L2C-prefetch_useful : 14335
L2C-prefetch_useless : 139922
L2C-Avg_miss_latency : 104.662
L2C-Morteza_fill_l2_prefetches : 556948

LLC TOTAL     ACCESS:     840683  HIT:     642473  MISS:     198210
LLC LOAD      ACCESS:     113642  HIT:      71583  MISS:      42059
LLC RFO       ACCESS:      36906  HIT:       8826  MISS:      28080
LLC PREFETCH  ACCESS:     583817  HIT:     456516  MISS:     127301
LLC WRITEBACK ACCESS:     106318  HIT:     105548  MISS:        770
LLC PREFETCH  REQUESTED:          0  ISSUED:          0  USEFUL:      29128  USELESS:      99994
LLC AVERAGE MISS LATENCY: 185.903 cycles
LLC

SHEET
LLC-total_access : 840683
LLC-total_hit : 642473
LLC-total_miss : 198210
LLC-load_access : 113642
LLC-load_hit : 71583
LLC-load_miss : 42059
LLC-rfo_access : 36906
LLC-rfo_hit : 8826
LLC-rfo_miss : 28080
LLC-prefetch_access : 583817
LLC-prefetch_hit : 456516
LLC-prefetch_miss : 127301
LLC-writeback_access : 106318
LLC-writeback_hit : 105548
LLC-writeback_miss : 770
LLC-prefetch_requested : 0
LLC-prefetch_issued : 0
LLC-prefetch_useful : 29128
LLC-prefetch_useless : 99994
LLC-Avg_miss_latency : 185.903
LLC-Morteza_fill_l2_prefetches : 361839

Major fault: 0 Minor fault: 3495



Printing Logs
statHeadFound: 452277
statHeadMissing: 930055
statStreamBufferHit: 11022181
statPrefetchEntryFound: 2358216
statCompactorMatch: 11526232
statStreamTrackerLookup: 12404513
statRecord: 878281
statGetPointer: 1382332
statEnqueuePrefetch: 8354825
statPrefetchQueueIsFull: 289
StreamBufferHitRate: 0.888562
Regions' size: 2156
next_region_correct: 631323
next_region_wrong: 244784
next_region_correct_prediction: 0.7206
statStreamBufferLookups: 893124936
statL1iLookups: 66838600
statCompactorLookups: 446562468
morteza: start

SHEET
mana_table_access_counter : 1229460
mana_table_multiple_access_counter : 2463119
hobp_table_access_counter : 16936125
sab_access_counter : 13380397
srq_access_counter : 11251072

morteza: end
CPU 0 L1D next line prefetcher final stats

DRAM Statistics
 CHANNEL 0
 RQ ROW_BUFFER_HIT:      48384  ROW_BUFFER_MISS:     149048
 DBUS_CONGESTED:     118250
 WQ ROW_BUFFER_HIT:      15844  ROW_BUFFER_MISS:      65088  FULL:          0

 AVG_CONGESTED_CYCLE: 5

CPU 0 Branch Prediction Accuracy: 97.9037% MPKI: 3.63418 Average ROB Occupancy at Mispredict: 85.8373

Branch types
NOT_BRANCH: 41331383 82.6628%
BRANCH_DIRECT_JUMP: 455615 0.91123%
BRANCH_INDIRECT: 20390 0.04078%
BRANCH_CONDITIONAL: 6745374 13.4907%
BRANCH_DIRECT_CALL: 494532 0.989064%
BRANCH_INDIRECT_CALL: 228815 0.45763%
BRANCH_RETURN: 723560 1.44712%
BRANCH_OTHER: 0 0%

