Initialize SIGNATURE TABLE
ST_SET: 1
ST_WAY: 256
ST_TAG_BIT: 16
ST_TAG_MASK: ffff

Initialize PATTERN TABLE
PT_SET: 512
PT_WAY: 4
SIG_DELTA_BIT: 7
C_SIG_BIT: 4
C_DELTA_BIT: 4

Initialize PREFETCH FILTER
FILTER_SET: 1024
MANA initialize 
tds: 2 tdm: 4
size MANA SINGLE: 74 KB
size MANA NULTIPLE: 43 KB
size HOBPT: 5 KB
size SRQ: 0.14502 KB
size SABs: 0.290039 KB
size prefetch queue: 0.453125 KB
total: 122.888 KB

*** ChampSim Multicore Out-of-Order Simulator ***

Warmup Instructions: 50000000
Simulation Instructions: 50000000
Number of CPUs: 1
LLC sets: 2048
LLC ways: 16
Off-chip DRAM Size: 4096 MB Channels: 1 Width: 64-bit Data Rate: 3200 MT/s

CPU 0 runs /home/mbaradaran/ChampSim/dpc3_traces/server_009.champsimtrace.xz
CPU 0 L1D next line prefetcher
Heartbeat CPU 0 instructions: 10000003 cycles: 3198931 heartbeat IPC: 3.12605 cumulative IPC: 3.12605 (Simulation time: 0 hr 1 min 16 sec) 
Heartbeat CPU 0 instructions: 20000001 cycles: 6390038 heartbeat IPC: 3.13371 cumulative IPC: 3.12987 (Simulation time: 0 hr 2 min 31 sec) 
Heartbeat CPU 0 instructions: 30000002 cycles: 9595883 heartbeat IPC: 3.1193 cumulative IPC: 3.12634 (Simulation time: 0 hr 3 min 44 sec) 
Heartbeat CPU 0 instructions: 40000003 cycles: 12798486 heartbeat IPC: 3.12246 cumulative IPC: 3.12537 (Simulation time: 0 hr 4 min 55 sec) 
Heartbeat CPU 0 instructions: 50000000 cycles: 16057766 heartbeat IPC: 3.06816 cumulative IPC: 3.11376 (Simulation time: 0 hr 6 min 9 sec) 

Warmup complete CPU 0 instructions: 50000004 cycles: 16057767 (Simulation time: 0 hr 6 min 9 sec) 

Heartbeat CPU 0 instructions: 60000002 cycles: 31840398 heartbeat IPC: 0.633608 cumulative IPC: 0.633608 (Simulation time: 0 hr 7 min 48 sec) 
Heartbeat CPU 0 instructions: 70000003 cycles: 52907001 heartbeat IPC: 0.474685 cumulative IPC: 0.542752 (Simulation time: 0 hr 9 min 53 sec) 
Heartbeat CPU 0 instructions: 80000000 cycles: 60242760 heartbeat IPC: 1.36319 cumulative IPC: 0.678963 (Simulation time: 0 hr 11 min 3 sec) 
Heartbeat CPU 0 instructions: 90000001 cycles: 67719893 heartbeat IPC: 1.33741 cumulative IPC: 0.774262 (Simulation time: 0 hr 12 min 9 sec) 
Heartbeat CPU 0 instructions: 100000003 cycles: 75092164 heartbeat IPC: 1.35643 cumulative IPC: 0.846964 (Simulation time: 0 hr 13 min 12 sec) 
Finished CPU 0 instructions: 50000003 cycles: 59034398 cumulative IPC: 0.846964 (Simulation time: 0 hr 13 min 12 sec) 

ChampSim completed all CPUs

Region of Interest Statistics

CPU 0 cumulative IPC: 0.846964 instructions: 50000003 cycles: 59034398

SHEET
IPC : 0.846964

L1D TOTAL     ACCESS:   21730409  HIT:   17150386  MISS:    4580023
L1D LOAD      ACCESS:    8678383  HIT:    6399053  MISS:    2279330
L1D RFO       ACCESS:    4585203  HIT:    4480511  MISS:     104692
L1D PREFETCH  ACCESS:    8466823  HIT:    6270822  MISS:    2196001
L1D WRITEBACK ACCESS:          0  HIT:          0  MISS:          0
L1D PREFETCH  REQUESTED:    8711807  ISSUED:    8614654  USEFUL:     107334  USELESS:    2088666
L1D AVERAGE MISS LATENCY: 20.316 cycles
L1D

SHEET
L1D-total_access : 21730409
L1D-total_hit : 17150386
L1D-total_miss : 4580023
L1D-load_access : 8678383
L1D-load_hit : 6399053
L1D-load_miss : 2279330
L1D-rfo_access : 4585203
L1D-rfo_hit : 4480511
L1D-rfo_miss : 104692
L1D-prefetch_access : 8466823
L1D-prefetch_hit : 6270822
L1D-prefetch_miss : 2196001
L1D-writeback_access : 0
L1D-writeback_hit : 0
L1D-writeback_miss : 0
L1D-prefetch_requested : 8711807
L1D-prefetch_issued : 8614654
L1D-prefetch_useful : 107334
L1D-prefetch_useless : 2088666
L1D-Avg_miss_latency : 20.316
L1D-Morteza_fill_l2_prefetches : 0

L1I TOTAL     ACCESS:   15345615  HIT:   13652060  MISS:    1693555
L1I LOAD      ACCESS:   10730512  HIT:   10424790  MISS:     305722
L1I RFO       ACCESS:          0  HIT:          0  MISS:          0
L1I PREFETCH  ACCESS:    4615103  HIT:    3227270  MISS:    1387833
L1I WRITEBACK ACCESS:          0  HIT:          0  MISS:          0
L1I PREFETCH  REQUESTED:    4981231  ISSUED:    4939627  USEFUL:     973569  USELESS:     414232
L1I AVERAGE MISS LATENCY: 27.6503 cycles
L1I

SHEET
L1I-total_access : 15345615
L1I-total_hit : 13652060
L1I-total_miss : 1693555
L1I-load_access : 10730512
L1I-load_hit : 10424790
L1I-load_miss : 305722
L1I-rfo_access : 0
L1I-rfo_hit : 0
L1I-rfo_miss : 0
L1I-prefetch_access : 4615103
L1I-prefetch_hit : 3227270
L1I-prefetch_miss : 1387833
L1I-writeback_access : 0
L1I-writeback_hit : 0
L1I-writeback_miss : 0
L1I-prefetch_requested : 4981231
L1I-prefetch_issued : 4939627
L1I-prefetch_useful : 973569
L1I-prefetch_useless : 414232
L1I-Avg_miss_latency : 27.6503
L1I-Morteza_fill_l2_prefetches : 0

L2C TOTAL     ACCESS:    7961297  HIT:    6934557  MISS:    1026740
L2C LOAD      ACCESS:    2429232  HIT:    2182883  MISS:     246349
L2C RFO       ACCESS:     103635  HIT:      63755  MISS:      39880
L2C PREFETCH  ACCESS:    5171532  HIT:    4432448  MISS:     739084
L2C WRITEBACK ACCESS:     256898  HIT:     255471  MISS:       1427
L2C PREFETCH  REQUESTED:    8431548  ISSUED:    8428899  USEFUL:      44701  USELESS:     693235
L2C AVERAGE MISS LATENCY: 48.0905 cycles
L2C

SHEET
L2C-total_access : 7961297
L2C-total_hit : 6934557
L2C-total_miss : 1026740
L2C-load_access : 2429232
L2C-load_hit : 2182883
L2C-load_miss : 246349
L2C-rfo_access : 103635
L2C-rfo_hit : 63755
L2C-rfo_miss : 39880
L2C-prefetch_access : 5171532
L2C-prefetch_hit : 4432448
L2C-prefetch_miss : 739084
L2C-writeback_access : 256898
L2C-writeback_hit : 255471
L2C-writeback_miss : 1427
L2C-prefetch_requested : 8431548
L2C-prefetch_issued : 8428899
L2C-prefetch_useful : 44701
L2C-prefetch_useless : 693235
L2C-Avg_miss_latency : 48.0905
L2C-Morteza_fill_l2_prefetches : 1433348

LLC TOTAL     ACCESS:    2480792  HIT:    2344260  MISS:     136532
LLC LOAD      ACCESS:     246041  HIT:     225464  MISS:      20577
LLC RFO       ACCESS:      39875  HIT:      30973  MISS:       8902
LLC PREFETCH  ACCESS:    2058035  HIT:    1951380  MISS:     106655
LLC WRITEBACK ACCESS:     136841  HIT:     136443  MISS:        398
LLC PREFETCH  REQUESTED:          0  ISSUED:          0  USEFUL:      10890  USELESS:      92464
LLC AVERAGE MISS LATENCY: 173.111 cycles
LLC

SHEET
LLC-total_access : 2480792
LLC-total_hit : 2344260
LLC-total_miss : 136532
LLC-load_access : 246041
LLC-load_hit : 225464
LLC-load_miss : 20577
LLC-rfo_access : 39875
LLC-rfo_hit : 30973
LLC-rfo_miss : 8902
LLC-prefetch_access : 2058035
LLC-prefetch_hit : 1951380
LLC-prefetch_miss : 106655
LLC-writeback_access : 136841
LLC-writeback_hit : 136443
LLC-writeback_miss : 398
LLC-prefetch_requested : 0
LLC-prefetch_issued : 0
LLC-prefetch_useful : 10890
LLC-prefetch_useless : 92464
LLC-Avg_miss_latency : 173.111
LLC-Morteza_fill_l2_prefetches : 1312489

Major fault: 0 Minor fault: 6415



Printing Logs
statHeadFound: 394032
statHeadMissing: 611576
statStreamBufferHit: 12577085
statPrefetchEntryFound: 3040796
statCompactorMatch: 11655707
statStreamTrackerLookup: 13582693
statRecord: 1926986
statGetPointer: 1005608
statEnqueuePrefetch: 10439126
statPrefetchQueueIsFull: 478
StreamBufferHitRate: 0.925964
Regions' size: 4407
next_region_correct: 1599536
next_region_wrong: 323025
next_region_correct_prediction: 0.831982
statStreamBufferLookups: 977953896
statL1iLookups: 83513008
statCompactorLookups: 488976948
morteza: start

SHEET
mana_table_access_counter : 2640440
mana_table_multiple_access_counter : 2727864
hobp_table_access_counter : 18804090
sab_access_counter : 15617881
srq_access_counter : 13189695

morteza: end
CPU 0 L1D next line prefetcher final stats

DRAM Statistics
 CHANNEL 0
 RQ ROW_BUFFER_HIT:      26448  ROW_BUFFER_MISS:     109679
 DBUS_CONGESTED:      63060
 WQ ROW_BUFFER_HIT:       8843  ROW_BUFFER_MISS:      38880  FULL:          0

 AVG_CONGESTED_CYCLE: 5

CPU 0 Branch Prediction Accuracy: 99.4713% MPKI: 1.11484 Average ROB Occupancy at Mispredict: 106.494

Branch types
NOT_BRANCH: 39456615 78.9132%
BRANCH_DIRECT_JUMP: 445350 0.8907%
BRANCH_INDIRECT: 131149 0.262298%
BRANCH_CONDITIONAL: 8130196 16.2604%
BRANCH_DIRECT_CALL: 732485 1.46497%
BRANCH_INDIRECT_CALL: 172369 0.344738%
BRANCH_RETURN: 931558 1.86312%
BRANCH_OTHER: 0 0%

