Initialize SIGNATURE TABLE
ST_SET: 1
ST_WAY: 256
ST_TAG_BIT: 16
ST_TAG_MASK: ffff

Initialize PATTERN TABLE
PT_SET: 512
PT_WAY: 4
SIG_DELTA_BIT: 7
C_SIG_BIT: 4
C_DELTA_BIT: 4

Initialize PREFETCH FILTER
FILTER_SET: 1024
MANA initialize 
tds: 2 tdm: 4
size MANA SINGLE: 74 KB
size MANA NULTIPLE: 43 KB
size HOBPT: 5 KB
size SRQ: 0.14502 KB
size SABs: 0.290039 KB
size prefetch queue: 0.453125 KB
total: 122.888 KB

*** ChampSim Multicore Out-of-Order Simulator ***

Warmup Instructions: 50000000
Simulation Instructions: 50000000
Number of CPUs: 1
LLC sets: 2048
LLC ways: 16
Off-chip DRAM Size: 4096 MB Channels: 1 Width: 64-bit Data Rate: 3200 MT/s

CPU 0 runs /home/mbaradaran/ChampSim/dpc3_traces/server_024.champsimtrace.xz
CPU 0 L1D next line prefetcher
Heartbeat CPU 0 instructions: 10000000 cycles: 3502641 heartbeat IPC: 2.85499 cumulative IPC: 2.85499 (Simulation time: 0 hr 1 min 23 sec) 
Heartbeat CPU 0 instructions: 20000002 cycles: 6997864 heartbeat IPC: 2.86105 cumulative IPC: 2.85802 (Simulation time: 0 hr 2 min 42 sec) 
Heartbeat CPU 0 instructions: 30000000 cycles: 10503598 heartbeat IPC: 2.85247 cumulative IPC: 2.85616 (Simulation time: 0 hr 4 min 2 sec) 
Heartbeat CPU 0 instructions: 40000000 cycles: 14006676 heartbeat IPC: 2.85463 cumulative IPC: 2.85578 (Simulation time: 0 hr 5 min 21 sec) 
Heartbeat CPU 0 instructions: 50000001 cycles: 17499313 heartbeat IPC: 2.86317 cumulative IPC: 2.85725 (Simulation time: 0 hr 6 min 40 sec) 

Warmup complete CPU 0 instructions: 50000001 cycles: 17499313 (Simulation time: 0 hr 6 min 40 sec) 

Heartbeat CPU 0 instructions: 60000003 cycles: 24644922 heartbeat IPC: 1.39946 cumulative IPC: 1.39946 (Simulation time: 0 hr 8 min 2 sec) 
Heartbeat CPU 0 instructions: 70000000 cycles: 31836543 heartbeat IPC: 1.39051 cumulative IPC: 1.39497 (Simulation time: 0 hr 9 min 24 sec) 
*** Reached end of trace for Core: 0 Repeating trace: /home/mbaradaran/ChampSim/dpc3_traces/server_024.champsimtrace.xz
Heartbeat CPU 0 instructions: 80000003 cycles: 38992152 heartbeat IPC: 1.39751 cumulative IPC: 1.39581 (Simulation time: 0 hr 10 min 43 sec) 
Heartbeat CPU 0 instructions: 90000003 cycles: 46203062 heartbeat IPC: 1.38679 cumulative IPC: 1.39355 (Simulation time: 0 hr 12 min 4 sec) 
Heartbeat CPU 0 instructions: 100000002 cycles: 53378112 heartbeat IPC: 1.39372 cumulative IPC: 1.39358 (Simulation time: 0 hr 13 min 26 sec) 
Finished CPU 0 instructions: 50000001 cycles: 35878799 cumulative IPC: 1.39358 (Simulation time: 0 hr 13 min 26 sec) 

ChampSim completed all CPUs

Region of Interest Statistics

CPU 0 cumulative IPC: 1.39358 instructions: 50000001 cycles: 35878799

SHEET
IPC : 1.39358

L1D TOTAL     ACCESS:   20125437  HIT:   18607301  MISS:    1518136
L1D LOAD      ACCESS:    7146749  HIT:    6465639  MISS:     681110
L1D RFO       ACCESS:    6159553  HIT:    5885826  MISS:     273727
L1D PREFETCH  ACCESS:    6819135  HIT:    6255836  MISS:     563299
L1D WRITEBACK ACCESS:          0  HIT:          0  MISS:          0
L1D PREFETCH  REQUESTED:    7200093  ISSUED:    7083231  USEFUL:     135480  USELESS:     427822
L1D AVERAGE MISS LATENCY: 25.1688 cycles
L1D

SHEET
L1D-total_access : 20125437
L1D-total_hit : 18607301
L1D-total_miss : 1518136
L1D-load_access : 7146749
L1D-load_hit : 6465639
L1D-load_miss : 681110
L1D-rfo_access : 6159553
L1D-rfo_hit : 5885826
L1D-rfo_miss : 273727
L1D-prefetch_access : 6819135
L1D-prefetch_hit : 6255836
L1D-prefetch_miss : 563299
L1D-writeback_access : 0
L1D-writeback_hit : 0
L1D-writeback_miss : 0
L1D-prefetch_requested : 7200093
L1D-prefetch_issued : 7083231
L1D-prefetch_useful : 135480
L1D-prefetch_useless : 427822
L1D-Avg_miss_latency : 25.1688
L1D-Morteza_fill_l2_prefetches : 0

L1I TOTAL     ACCESS:   14866864  HIT:   10896991  MISS:    3969873
L1I LOAD      ACCESS:    9151775  HIT:    8377393  MISS:     774382
L1I RFO       ACCESS:          0  HIT:          0  MISS:          0
L1I PREFETCH  ACCESS:    5715089  HIT:    2519598  MISS:    3195491
L1I WRITEBACK ACCESS:          0  HIT:          0  MISS:          0
L1I PREFETCH  REQUESTED:    6510123  ISSUED:    6503215  USEFUL:    2131017  USELESS:    1064470
L1I AVERAGE MISS LATENCY: 16.0464 cycles
L1I

SHEET
L1I-total_access : 14866864
L1I-total_hit : 10896991
L1I-total_miss : 3969873
L1I-load_access : 9151775
L1I-load_hit : 8377393
L1I-load_miss : 774382
L1I-rfo_access : 0
L1I-rfo_hit : 0
L1I-rfo_miss : 0
L1I-prefetch_access : 5715089
L1I-prefetch_hit : 2519598
L1I-prefetch_miss : 3195491
L1I-writeback_access : 0
L1I-writeback_hit : 0
L1I-writeback_miss : 0
L1I-prefetch_requested : 6510123
L1I-prefetch_issued : 6503215
L1I-prefetch_useful : 2131017
L1I-prefetch_useless : 1064470
L1I-Avg_miss_latency : 16.0464
L1I-Morteza_fill_l2_prefetches : 0

L2C TOTAL     ACCESS:    7328924  HIT:    6624179  MISS:     704745
L2C LOAD      ACCESS:    1054613  HIT:     896440  MISS:     158173
L2C RFO       ACCESS:     272214  HIT:     185593  MISS:      86621
L2C PREFETCH  ACCESS:    5481912  HIT:    5026748  MISS:     455164
L2C WRITEBACK ACCESS:     520185  HIT:     515398  MISS:       4787
L2C PREFETCH  REQUESTED:    6155742  ISSUED:    6150219  USEFUL:      33142  USELESS:     421210
L2C AVERAGE MISS LATENCY: 44.221 cycles
L2C

SHEET
L2C-total_access : 7328924
L2C-total_hit : 6624179
L2C-total_miss : 704745
L2C-load_access : 1054613
L2C-load_hit : 896440
L2C-load_miss : 158173
L2C-rfo_access : 272214
L2C-rfo_hit : 185593
L2C-rfo_miss : 86621
L2C-prefetch_access : 5481912
L2C-prefetch_hit : 5026748
L2C-prefetch_miss : 455164
L2C-writeback_access : 520185
L2C-writeback_hit : 515398
L2C-writeback_miss : 4787
L2C-prefetch_requested : 6155742
L2C-prefetch_issued : 6150219
L2C-prefetch_useful : 33142
L2C-prefetch_useless : 421210
L2C-Avg_miss_latency : 44.221
L2C-Morteza_fill_l2_prefetches : 1354697

LLC TOTAL     ACCESS:    2366256  HIT:    2314589  MISS:      51667
LLC LOAD      ACCESS:     157803  HIT:     152225  MISS:       5578
LLC RFO       ACCESS:      86619  HIT:      64539  MISS:      22080
LLC PREFETCH  ACCESS:    1982659  HIT:    1958958  MISS:      23701
LLC WRITEBACK ACCESS:     139175  HIT:     138867  MISS:        308
LLC PREFETCH  REQUESTED:          0  ISSUED:          0  USEFUL:       2176  USELESS:      21525
LLC AVERAGE MISS LATENCY: 199.523 cycles
LLC

SHEET
LLC-total_access : 2366256
LLC-total_hit : 2314589
LLC-total_miss : 51667
LLC-load_access : 157803
LLC-load_hit : 152225
LLC-load_miss : 5578
LLC-rfo_access : 86619
LLC-rfo_hit : 64539
LLC-rfo_miss : 22080
LLC-prefetch_access : 1982659
LLC-prefetch_hit : 1958958
LLC-prefetch_miss : 23701
LLC-writeback_access : 139175
LLC-writeback_hit : 138867
LLC-writeback_miss : 308
LLC-prefetch_requested : 0
LLC-prefetch_issued : 0
LLC-prefetch_useful : 2176
LLC-prefetch_useless : 21525
LLC-Avg_miss_latency : 199.523
LLC-Morteza_fill_l2_prefetches : 1535346

Major fault: 0 Minor fault: 2424



Printing Logs
statHeadFound: 748415
statHeadMissing: 709358
statStreamBufferHit: 12630418
statPrefetchEntryFound: 4341760
statCompactorMatch: 11744114
statStreamTrackerLookup: 14088191
statRecord: 2344077
statGetPointer: 1457773
statEnqueuePrefetch: 12998713
statPrefetchQueueIsFull: 0
StreamBufferHitRate: 0.896525
Regions' size: 2285
next_region_correct: 1561936
next_region_wrong: 779838
next_region_correct_prediction: 0.666988
statStreamBufferLookups: 1014349752
statL1iLookups: 103989704
statCompactorLookups: 507174876
morteza: start

SHEET
mana_table_access_counter : 3826979
mana_table_multiple_access_counter : 3610819
hobp_table_access_counter : 25386152
sab_access_counter : 16972178
srq_access_counter : 15091198

morteza: end
CPU 0 L1D next line prefetcher final stats

DRAM Statistics
 CHANNEL 0
 RQ ROW_BUFFER_HIT:      17462  ROW_BUFFER_MISS:      33890
 DBUS_CONGESTED:      37827
 WQ ROW_BUFFER_HIT:       2655  ROW_BUFFER_MISS:      22887  FULL:          0

 AVG_CONGESTED_CYCLE: 6

CPU 0 Branch Prediction Accuracy: 99.7477% MPKI: 0.46156 Average ROB Occupancy at Mispredict: 145.13

Branch types
NOT_BRANCH: 40853572 81.7071%
BRANCH_DIRECT_JUMP: 566812 1.13362%
BRANCH_INDIRECT: 197171 0.394342%
BRANCH_CONDITIONAL: 6308397 12.6168%
BRANCH_DIRECT_CALL: 876399 1.7528%
BRANCH_INDIRECT_CALL: 160491 0.320982%
BRANCH_RETURN: 1036885 2.07377%
BRANCH_OTHER: 0 0%

