Initialize SIGNATURE TABLE
ST_SET: 1
ST_WAY: 256
ST_TAG_BIT: 16
ST_TAG_MASK: ffff

Initialize PATTERN TABLE
PT_SET: 512
PT_WAY: 4
SIG_DELTA_BIT: 7
C_SIG_BIT: 4
C_DELTA_BIT: 4

Initialize PREFETCH FILTER
FILTER_SET: 1024
MANA initialize 
tds: 2 tdm: 4
size MANA SINGLE: 74 KB
size MANA NULTIPLE: 43 KB
size HOBPT: 5 KB
size SRQ: 0.14502 KB
size SABs: 0.290039 KB
size prefetch queue: 0.453125 KB
total: 122.888 KB

*** ChampSim Multicore Out-of-Order Simulator ***

Warmup Instructions: 50000000
Simulation Instructions: 50000000
Number of CPUs: 1
LLC sets: 2048
LLC ways: 16
Off-chip DRAM Size: 4096 MB Channels: 1 Width: 64-bit Data Rate: 3200 MT/s

CPU 0 runs /home/mbaradaran/ChampSim/dpc3_traces/server_027.champsimtrace.xz
CPU 0 L1D next line prefetcher
Heartbeat CPU 0 instructions: 10000001 cycles: 3529773 heartbeat IPC: 2.83304 cumulative IPC: 2.83304 (Simulation time: 0 hr 1 min 30 sec) 
Heartbeat CPU 0 instructions: 20000001 cycles: 7064084 heartbeat IPC: 2.82941 cumulative IPC: 2.83122 (Simulation time: 0 hr 2 min 59 sec) 
Heartbeat CPU 0 instructions: 30000002 cycles: 10593438 heartbeat IPC: 2.83338 cumulative IPC: 2.83194 (Simulation time: 0 hr 4 min 22 sec) 
Heartbeat CPU 0 instructions: 40000000 cycles: 14128235 heartbeat IPC: 2.82902 cumulative IPC: 2.83121 (Simulation time: 0 hr 5 min 47 sec) 
Heartbeat CPU 0 instructions: 50000001 cycles: 17656685 heartbeat IPC: 2.83411 cumulative IPC: 2.83179 (Simulation time: 0 hr 7 min 10 sec) 

Warmup complete CPU 0 instructions: 50000001 cycles: 17656685 (Simulation time: 0 hr 7 min 10 sec) 

Heartbeat CPU 0 instructions: 60000002 cycles: 24937324 heartbeat IPC: 1.37351 cumulative IPC: 1.37351 (Simulation time: 0 hr 8 min 28 sec) 
Heartbeat CPU 0 instructions: 70000003 cycles: 32151436 heartbeat IPC: 1.38617 cumulative IPC: 1.37981 (Simulation time: 0 hr 9 min 47 sec) 
Heartbeat CPU 0 instructions: 80000002 cycles: 39388609 heartbeat IPC: 1.38175 cumulative IPC: 1.38046 (Simulation time: 0 hr 11 min 9 sec) 
Heartbeat CPU 0 instructions: 90000001 cycles: 46692719 heartbeat IPC: 1.36909 cumulative IPC: 1.3776 (Simulation time: 0 hr 12 min 32 sec) 
Heartbeat CPU 0 instructions: 100000002 cycles: 53871670 heartbeat IPC: 1.39296 cumulative IPC: 1.38064 (Simulation time: 0 hr 13 min 58 sec) 
Finished CPU 0 instructions: 50000001 cycles: 36214985 cumulative IPC: 1.38064 (Simulation time: 0 hr 13 min 58 sec) 

ChampSim completed all CPUs

Region of Interest Statistics

CPU 0 cumulative IPC: 1.38064 instructions: 50000001 cycles: 36214985

SHEET
IPC : 1.38064

L1D TOTAL     ACCESS:   20384702  HIT:   18782458  MISS:    1602244
L1D LOAD      ACCESS:    7183261  HIT:    6493026  MISS:     690235
L1D RFO       ACCESS:    6301045  HIT:    6015145  MISS:     285900
L1D PREFETCH  ACCESS:    6900396  HIT:    6274287  MISS:     626109
L1D WRITEBACK ACCESS:          0  HIT:          0  MISS:          0
L1D PREFETCH  REQUESTED:    7230073  ISSUED:    7107618  USEFUL:     151298  USELESS:     474824
L1D AVERAGE MISS LATENCY: 23.8641 cycles
L1D

SHEET
L1D-total_access : 20384702
L1D-total_hit : 18782458
L1D-total_miss : 1602244
L1D-load_access : 7183261
L1D-load_hit : 6493026
L1D-load_miss : 690235
L1D-rfo_access : 6301045
L1D-rfo_hit : 6015145
L1D-rfo_miss : 285900
L1D-prefetch_access : 6900396
L1D-prefetch_hit : 6274287
L1D-prefetch_miss : 626109
L1D-writeback_access : 0
L1D-writeback_hit : 0
L1D-writeback_miss : 0
L1D-prefetch_requested : 7230073
L1D-prefetch_issued : 7107618
L1D-prefetch_useful : 151298
L1D-prefetch_useless : 474824
L1D-Avg_miss_latency : 23.8641
L1D-Morteza_fill_l2_prefetches : 0

L1I TOTAL     ACCESS:   15282902  HIT:   10924865  MISS:    4358037
L1I LOAD      ACCESS:    9253117  HIT:    8386362  MISS:     866755
L1I RFO       ACCESS:          0  HIT:          0  MISS:          0
L1I PREFETCH  ACCESS:    6029785  HIT:    2538503  MISS:    3491282
L1I WRITEBACK ACCESS:          0  HIT:          0  MISS:          0
L1I PREFETCH  REQUESTED:    6891802  ISSUED:    6890281  USEFUL:    2321077  USELESS:    1170165
L1I AVERAGE MISS LATENCY: 16.1164 cycles
L1I

SHEET
L1I-total_access : 15282902
L1I-total_hit : 10924865
L1I-total_miss : 4358037
L1I-load_access : 9253117
L1I-load_hit : 8386362
L1I-load_miss : 866755
L1I-rfo_access : 0
L1I-rfo_hit : 0
L1I-rfo_miss : 0
L1I-prefetch_access : 6029785
L1I-prefetch_hit : 2538503
L1I-prefetch_miss : 3491282
L1I-writeback_access : 0
L1I-writeback_hit : 0
L1I-writeback_miss : 0
L1I-prefetch_requested : 6891802
L1I-prefetch_issued : 6890281
L1I-prefetch_useful : 2321077
L1I-prefetch_useless : 1170165
L1I-Avg_miss_latency : 16.1164
L1I-Morteza_fill_l2_prefetches : 0

L2C TOTAL     ACCESS:    7997014  HIT:    7214395  MISS:     782619
L2C LOAD      ACCESS:    1154904  HIT:     973849  MISS:     181055
L2C RFO       ACCESS:     283926  HIT:     188873  MISS:      95053
L2C PREFETCH  ACCESS:    5998828  HIT:    5499878  MISS:     498950
L2C WRITEBACK ACCESS:     559356  HIT:     551795  MISS:       7561
L2C PREFETCH  REQUESTED:    6884228  ISSUED:    6875582  USEFUL:      40960  USELESS:     457201
L2C AVERAGE MISS LATENCY: 38.5346 cycles
L2C

SHEET
L2C-total_access : 7997014
L2C-total_hit : 7214395
L2C-total_miss : 782619
L2C-load_access : 1154904
L2C-load_hit : 973849
L2C-load_miss : 181055
L2C-rfo_access : 283926
L2C-rfo_hit : 188873
L2C-rfo_miss : 95053
L2C-prefetch_access : 5998828
L2C-prefetch_hit : 5499878
L2C-prefetch_miss : 498950
L2C-writeback_access : 559356
L2C-writeback_hit : 551795
L2C-writeback_miss : 7561
L2C-prefetch_requested : 6884228
L2C-prefetch_issued : 6875582
L2C-prefetch_useful : 40960
L2C-prefetch_useless : 457201
L2C-Avg_miss_latency : 38.5346
L2C-Morteza_fill_l2_prefetches : 1510150

LLC TOTAL     ACCESS:    2662713  HIT:    2629759  MISS:      32954
LLC LOAD      ACCESS:     180894  HIT:     177324  MISS:       3570
LLC RFO       ACCESS:      95051  HIT:      81154  MISS:      13897
LLC PREFETCH  ACCESS:    2226443  HIT:    2211108  MISS:      15335
LLC WRITEBACK ACCESS:     160325  HIT:     160173  MISS:        152
LLC PREFETCH  REQUESTED:          0  ISSUED:          0  USEFUL:       1365  USELESS:      13202
LLC AVERAGE MISS LATENCY: 183.429 cycles
LLC

SHEET
LLC-total_access : 2662713
LLC-total_hit : 2629759
LLC-total_miss : 32954
LLC-load_access : 180894
LLC-load_hit : 177324
LLC-load_miss : 3570
LLC-rfo_access : 95051
LLC-rfo_hit : 81154
LLC-rfo_miss : 13897
LLC-prefetch_access : 2226443
LLC-prefetch_hit : 2211108
LLC-prefetch_miss : 15335
LLC-writeback_access : 160325
LLC-writeback_hit : 160173
LLC-writeback_miss : 152
LLC-prefetch_requested : 0
LLC-prefetch_issued : 0
LLC-prefetch_useful : 1365
LLC-prefetch_useless : 13202
LLC-Avg_miss_latency : 183.429
LLC-Morteza_fill_l2_prefetches : 1733211

Major fault: 0 Minor fault: 2539



Printing Logs
statHeadFound: 786533
statHeadMissing: 779959
statStreamBufferHit: 12644059
statPrefetchEntryFound: 4616330
statCompactorMatch: 11672160
statStreamTrackerLookup: 14210551
statRecord: 2538391
statGetPointer: 1566492
statEnqueuePrefetch: 13714261
statPrefetchQueueIsFull: 0
StreamBufferHitRate: 0.889766
Regions' size: 2312
next_region_correct: 1697994
next_region_wrong: 838067
next_region_correct_prediction: 0.66954
statStreamBufferLookups: 1023159672
statL1iLookups: 109714088
statCompactorLookups: 511579836
morteza: start

SHEET
mana_table_access_counter : 4203835
mana_table_multiple_access_counter : 3741013
hobp_table_access_counter : 27307810
sab_access_counter : 17260389
srq_access_counter : 15396480

morteza: end
CPU 0 L1D next line prefetcher final stats

DRAM Statistics
 CHANNEL 0
 RQ ROW_BUFFER_HIT:      11158  ROW_BUFFER_MISS:      21643
 DBUS_CONGESTED:      23331
 WQ ROW_BUFFER_HIT:       1553  ROW_BUFFER_MISS:      14783  FULL:          0

 AVG_CONGESTED_CYCLE: 6

CPU 0 Branch Prediction Accuracy: 99.8082% MPKI: 0.35064 Average ROB Occupancy at Mispredict: 146.459

Branch types
NOT_BRANCH: 40857444 81.7149%
BRANCH_DIRECT_JUMP: 526634 1.05327%
BRANCH_INDIRECT: 205902 0.411804%
BRANCH_CONDITIONAL: 6184044 12.3681%
BRANCH_DIRECT_CALL: 938466 1.87693%
BRANCH_INDIRECT_CALL: 174486 0.348972%
BRANCH_RETURN: 1112957 2.22591%
BRANCH_OTHER: 0 0%

