Initialize SIGNATURE TABLE
ST_SET: 1
ST_WAY: 256
ST_TAG_BIT: 16
ST_TAG_MASK: ffff

Initialize PATTERN TABLE
PT_SET: 512
PT_WAY: 4
SIG_DELTA_BIT: 7
C_SIG_BIT: 4
C_DELTA_BIT: 4

Initialize PREFETCH FILTER
FILTER_SET: 1024
MANA initialize 
tds: 2 tdm: 4
size MANA SINGLE: 74 KB
size MANA NULTIPLE: 43 KB
size HOBPT: 5 KB
size SRQ: 0.14502 KB
size SABs: 0.290039 KB
size prefetch queue: 0.453125 KB
total: 122.888 KB

*** ChampSim Multicore Out-of-Order Simulator ***

Warmup Instructions: 50000000
Simulation Instructions: 50000000
Number of CPUs: 1
LLC sets: 2048
LLC ways: 16
Off-chip DRAM Size: 4096 MB Channels: 1 Width: 64-bit Data Rate: 3200 MT/s

CPU 0 runs /home/mbaradaran/ChampSim/dpc3_traces/server_038.champsimtrace.xz
CPU 0 L1D next line prefetcher
Heartbeat CPU 0 instructions: 10000001 cycles: 3322731 heartbeat IPC: 3.00957 cumulative IPC: 3.00957 (Simulation time: 0 hr 1 min 29 sec) 
Heartbeat CPU 0 instructions: 20000003 cycles: 6648688 heartbeat IPC: 3.00665 cumulative IPC: 3.00811 (Simulation time: 0 hr 2 min 56 sec) 
Heartbeat CPU 0 instructions: 30000003 cycles: 9970330 heartbeat IPC: 3.01056 cumulative IPC: 3.00893 (Simulation time: 0 hr 4 min 27 sec) 
Heartbeat CPU 0 instructions: 40000001 cycles: 13296274 heartbeat IPC: 3.00666 cumulative IPC: 3.00836 (Simulation time: 0 hr 5 min 56 sec) 
Heartbeat CPU 0 instructions: 50000001 cycles: 16620280 heartbeat IPC: 3.00842 cumulative IPC: 3.00837 (Simulation time: 0 hr 7 min 22 sec) 

Warmup complete CPU 0 instructions: 50000001 cycles: 16620280 (Simulation time: 0 hr 7 min 22 sec) 

Heartbeat CPU 0 instructions: 60000002 cycles: 23079731 heartbeat IPC: 1.54812 cumulative IPC: 1.54812 (Simulation time: 0 hr 8 min 44 sec) 
Heartbeat CPU 0 instructions: 70000001 cycles: 29499440 heartbeat IPC: 1.5577 cumulative IPC: 1.5529 (Simulation time: 0 hr 10 min 5 sec) 
Heartbeat CPU 0 instructions: 80000000 cycles: 35920936 heartbeat IPC: 1.55727 cumulative IPC: 1.55435 (Simulation time: 0 hr 11 min 22 sec) 
Heartbeat CPU 0 instructions: 90000001 cycles: 42351506 heartbeat IPC: 1.55507 cumulative IPC: 1.55453 (Simulation time: 0 hr 12 min 39 sec) 
*** Reached end of trace for Core: 0 Repeating trace: /home/mbaradaran/ChampSim/dpc3_traces/server_038.champsimtrace.xz
Heartbeat CPU 0 instructions: 100000002 cycles: 48794979 heartbeat IPC: 1.55196 cumulative IPC: 1.55402 (Simulation time: 0 hr 13 min 55 sec) 
Finished CPU 0 instructions: 50000001 cycles: 32174699 cumulative IPC: 1.55402 (Simulation time: 0 hr 13 min 55 sec) 

ChampSim completed all CPUs

Region of Interest Statistics

CPU 0 cumulative IPC: 1.55402 instructions: 50000001 cycles: 32174699

SHEET
IPC : 1.55402

L1D TOTAL     ACCESS:   18726166  HIT:   17743794  MISS:     982372
L1D LOAD      ACCESS:    6376363  HIT:    5883476  MISS:     492887
L1D RFO       ACCESS:    6211208  HIT:    6146685  MISS:      64523
L1D PREFETCH  ACCESS:    6138595  HIT:    5713633  MISS:     424962
L1D WRITEBACK ACCESS:          0  HIT:          0  MISS:          0
L1D PREFETCH  REQUESTED:    6413259  ISSUED:    6260428  USEFUL:     118203  USELESS:     306762
L1D AVERAGE MISS LATENCY: 29.4073 cycles
L1D

SHEET
L1D-total_access : 18726166
L1D-total_hit : 17743794
L1D-total_miss : 982372
L1D-load_access : 6376363
L1D-load_hit : 5883476
L1D-load_miss : 492887
L1D-rfo_access : 6211208
L1D-rfo_hit : 6146685
L1D-rfo_miss : 64523
L1D-prefetch_access : 6138595
L1D-prefetch_hit : 5713633
L1D-prefetch_miss : 424962
L1D-writeback_access : 0
L1D-writeback_hit : 0
L1D-writeback_miss : 0
L1D-prefetch_requested : 6413259
L1D-prefetch_issued : 6260428
L1D-prefetch_useful : 118203
L1D-prefetch_useless : 306762
L1D-Avg_miss_latency : 29.4073
L1D-Morteza_fill_l2_prefetches : 0

L1I TOTAL     ACCESS:   15002248  HIT:   10303782  MISS:    4698466
L1I LOAD      ACCESS:    9248514  HIT:    8543708  MISS:     704806
L1I RFO       ACCESS:          0  HIT:          0  MISS:          0
L1I PREFETCH  ACCESS:    5753734  HIT:    1760074  MISS:    3993660
L1I WRITEBACK ACCESS:          0  HIT:          0  MISS:          0
L1I PREFETCH  REQUESTED:    6410165  ISSUED:    6410165  USEFUL:    3704030  USELESS:     289641
L1I AVERAGE MISS LATENCY: 13.5842 cycles
L1I

SHEET
L1I-total_access : 15002248
L1I-total_hit : 10303782
L1I-total_miss : 4698466
L1I-load_access : 9248514
L1I-load_hit : 8543708
L1I-load_miss : 704806
L1I-rfo_access : 0
L1I-rfo_hit : 0
L1I-rfo_miss : 0
L1I-prefetch_access : 5753734
L1I-prefetch_hit : 1760074
L1I-prefetch_miss : 3993660
L1I-writeback_access : 0
L1I-writeback_hit : 0
L1I-writeback_miss : 0
L1I-prefetch_requested : 6410165
L1I-prefetch_issued : 6410165
L1I-prefetch_useful : 3704030
L1I-prefetch_useless : 289641
L1I-Avg_miss_latency : 13.5842
L1I-Morteza_fill_l2_prefetches : 0

L2C TOTAL     ACCESS:    8283940  HIT:    7966606  MISS:     317334
L2C LOAD      ACCESS:     696398  HIT:     553274  MISS:     143124
L2C RFO       ACCESS:      64260  HIT:      36619  MISS:      27641
L2C PREFETCH  ACCESS:    7231569  HIT:    7085970  MISS:     145599
L2C WRITEBACK ACCESS:     291713  HIT:     290743  MISS:        970
L2C PREFETCH  REQUESTED:    7593016  ISSUED:    7571525  USEFUL:       6903  USELESS:     138529
L2C AVERAGE MISS LATENCY: 46.1442 cycles
L2C

SHEET
L2C-total_access : 8283940
L2C-total_hit : 7966606
L2C-total_miss : 317334
L2C-load_access : 696398
L2C-load_hit : 553274
L2C-load_miss : 143124
L2C-rfo_access : 64260
L2C-rfo_hit : 36619
L2C-rfo_miss : 27641
L2C-prefetch_access : 7231569
L2C-prefetch_hit : 7085970
L2C-prefetch_miss : 145599
L2C-writeback_access : 291713
L2C-writeback_hit : 290743
L2C-writeback_miss : 970
L2C-prefetch_requested : 7593016
L2C-prefetch_issued : 7571525
L2C-prefetch_useful : 6903
L2C-prefetch_useless : 138529
L2C-Avg_miss_latency : 46.1442
L2C-Morteza_fill_l2_prefetches : 2332969

LLC TOTAL     ACCESS:    1851819  HIT:    1794362  MISS:      57457
LLC LOAD      ACCESS:     143107  HIT:     130340  MISS:      12767
LLC RFO       ACCESS:      27641  HIT:      22730  MISS:       4911
LLC PREFETCH  ACCESS:    1537357  HIT:    1498177  MISS:      39180
LLC WRITEBACK ACCESS:     143714  HIT:     143115  MISS:        599
LLC PREFETCH  REQUESTED:          0  ISSUED:          0  USEFUL:       3617  USELESS:      34471
LLC AVERAGE MISS LATENCY: 170.585 cycles
LLC

SHEET
LLC-total_access : 1851819
LLC-total_hit : 1794362
LLC-total_miss : 57457
LLC-load_access : 143107
LLC-load_hit : 130340
LLC-load_miss : 12767
LLC-rfo_access : 27641
LLC-rfo_hit : 22730
LLC-rfo_miss : 4911
LLC-prefetch_access : 1537357
LLC-prefetch_hit : 1498177
LLC-prefetch_miss : 39180
LLC-writeback_access : 143714
LLC-writeback_hit : 143115
LLC-writeback_miss : 599
LLC-prefetch_requested : 0
LLC-prefetch_issued : 0
LLC-prefetch_useful : 3617
LLC-prefetch_useless : 34471
LLC-Avg_miss_latency : 170.585
LLC-Morteza_fill_l2_prefetches : 1373308

Major fault: 0 Minor fault: 5578



Printing Logs
statHeadFound: 314416
statHeadMissing: 358573
statStreamBufferHit: 13843500
statPrefetchEntryFound: 4136198
statCompactorMatch: 11273715
statStreamTrackerLookup: 14516489
statRecord: 3242774
statGetPointer: 672989
statEnqueuePrefetch: 12990304
statPrefetchQueueIsFull: 0
StreamBufferHitRate: 0.95364
Regions' size: 924
next_region_correct: 2569569
next_region_wrong: 672263
next_region_correct_prediction: 0.792629
statStreamBufferLookups: 1045187208
statL1iLookups: 103922432
statCompactorLookups: 522593604
morteza: start

SHEET
mana_table_access_counter : 5040133
mana_table_multiple_access_counter : 2654515
hobp_table_access_counter : 22493279
sab_access_counter : 17979698
srq_access_counter : 16691386

morteza: end
CPU 0 L1D next line prefetcher final stats

DRAM Statistics
 CHANNEL 0
 RQ ROW_BUFFER_HIT:       8548  ROW_BUFFER_MISS:      48310
 DBUS_CONGESTED:      27489
 WQ ROW_BUFFER_HIT:       1213  ROW_BUFFER_MISS:      11861  FULL:          0

 AVG_CONGESTED_CYCLE: 5

CPU 0 Branch Prediction Accuracy: 99.9279% MPKI: 0.12968 Average ROB Occupancy at Mispredict: 212.153

Branch types
NOT_BRANCH: 41006313 82.0126%
BRANCH_DIRECT_JUMP: 541914 1.08383%
BRANCH_INDIRECT: 59690 0.11938%
BRANCH_CONDITIONAL: 5915845 11.8317%
BRANCH_DIRECT_CALL: 1003588 2.00718%
BRANCH_INDIRECT_CALL: 234499 0.468998%
BRANCH_RETURN: 1238071 2.47614%
BRANCH_OTHER: 0 0%

