Initialize SIGNATURE TABLE
ST_SET: 1
ST_WAY: 256
ST_TAG_BIT: 16
ST_TAG_MASK: ffff

Initialize PATTERN TABLE
PT_SET: 512
PT_WAY: 4
SIG_DELTA_BIT: 7
C_SIG_BIT: 4
C_DELTA_BIT: 4

Initialize PREFETCH FILTER
FILTER_SET: 1024
MANA initialize 
tds: 2 tdm: 4
size MANA SINGLE: 74 KB
size MANA NULTIPLE: 43 KB
size HOBPT: 5 KB
size SRQ: 0.14502 KB
size SABs: 0.290039 KB
size prefetch queue: 0.453125 KB
total: 122.888 KB

*** ChampSim Multicore Out-of-Order Simulator ***

Warmup Instructions: 50000000
Simulation Instructions: 50000000
Number of CPUs: 1
LLC sets: 2048
LLC ways: 16
Off-chip DRAM Size: 4096 MB Channels: 1 Width: 64-bit Data Rate: 3200 MT/s

CPU 0 runs /home/mbaradaran/ChampSim/dpc3_traces/server_018.champsimtrace.xz
CPU 0 L1D next line prefetcher
Heartbeat CPU 0 instructions: 10000003 cycles: 3621118 heartbeat IPC: 2.76158 cumulative IPC: 2.76158 (Simulation time: 0 hr 1 min 29 sec) 
Heartbeat CPU 0 instructions: 20000001 cycles: 7246741 heartbeat IPC: 2.75815 cumulative IPC: 2.75986 (Simulation time: 0 hr 2 min 58 sec) 
Heartbeat CPU 0 instructions: 30000003 cycles: 10725227 heartbeat IPC: 2.87481 cumulative IPC: 2.79714 (Simulation time: 0 hr 4 min 23 sec) 
Heartbeat CPU 0 instructions: 40000000 cycles: 14240388 heartbeat IPC: 2.84482 cumulative IPC: 2.80891 (Simulation time: 0 hr 5 min 50 sec) 
Heartbeat CPU 0 instructions: 50000003 cycles: 17861641 heartbeat IPC: 2.76148 cumulative IPC: 2.79929 (Simulation time: 0 hr 7 min 22 sec) 

Warmup complete CPU 0 instructions: 50000003 cycles: 17861641 (Simulation time: 0 hr 7 min 22 sec) 

Heartbeat CPU 0 instructions: 60000000 cycles: 35167547 heartbeat IPC: 0.577837 cumulative IPC: 0.577837 (Simulation time: 0 hr 9 min 19 sec) 
Heartbeat CPU 0 instructions: 70000001 cycles: 52480495 heartbeat IPC: 0.577602 cumulative IPC: 0.57772 (Simulation time: 0 hr 11 min 16 sec) 
Heartbeat CPU 0 instructions: 80000001 cycles: 69819369 heartbeat IPC: 0.576739 cumulative IPC: 0.577392 (Simulation time: 0 hr 13 min 11 sec) 
Heartbeat CPU 0 instructions: 90000002 cycles: 87113342 heartbeat IPC: 0.578236 cumulative IPC: 0.577603 (Simulation time: 0 hr 15 min 12 sec) 
Heartbeat CPU 0 instructions: 100000000 cycles: 104484164 heartbeat IPC: 0.575678 cumulative IPC: 0.577217 (Simulation time: 0 hr 17 min 11 sec) 
Finished CPU 0 instructions: 50000002 cycles: 86622526 cumulative IPC: 0.577217 (Simulation time: 0 hr 17 min 11 sec) 

ChampSim completed all CPUs

Region of Interest Statistics

CPU 0 cumulative IPC: 0.577217 instructions: 50000002 cycles: 86622526

SHEET
IPC : 0.577217

L1D TOTAL     ACCESS:   18643374  HIT:   16425755  MISS:    2217619
L1D LOAD      ACCESS:    7063639  HIT:    6340418  MISS:     723221
L1D RFO       ACCESS:    5796982  HIT:    4844842  MISS:     952140
L1D PREFETCH  ACCESS:    5782753  HIT:    5240495  MISS:     542258
L1D WRITEBACK ACCESS:          0  HIT:          0  MISS:          0
L1D PREFETCH  REQUESTED:    7104744  ISSUED:    6901847  USEFUL:     202583  USELESS:     339765
L1D AVERAGE MISS LATENCY: 175.294 cycles
L1D

SHEET
L1D-total_access : 18643374
L1D-total_hit : 16425755
L1D-total_miss : 2217619
L1D-load_access : 7063639
L1D-load_hit : 6340418
L1D-load_miss : 723221
L1D-rfo_access : 5796982
L1D-rfo_hit : 4844842
L1D-rfo_miss : 952140
L1D-prefetch_access : 5782753
L1D-prefetch_hit : 5240495
L1D-prefetch_miss : 542258
L1D-writeback_access : 0
L1D-writeback_hit : 0
L1D-writeback_miss : 0
L1D-prefetch_requested : 7104744
L1D-prefetch_issued : 6901847
L1D-prefetch_useful : 202583
L1D-prefetch_useless : 339765
L1D-Avg_miss_latency : 175.294
L1D-Morteza_fill_l2_prefetches : 0

L1I TOTAL     ACCESS:   14431017  HIT:   11191521  MISS:    3239496
L1I LOAD      ACCESS:   10015169  HIT:    9563292  MISS:     451877
L1I RFO       ACCESS:          0  HIT:          0  MISS:          0
L1I PREFETCH  ACCESS:    4415848  HIT:    1628229  MISS:    2787619
L1I WRITEBACK ACCESS:          0  HIT:          0  MISS:          0
L1I PREFETCH  REQUESTED:    4859402  ISSUED:    4859311  USEFUL:    2667566  USELESS:     120039
L1I AVERAGE MISS LATENCY: 15.7918 cycles
L1I

SHEET
L1I-total_access : 14431017
L1I-total_hit : 11191521
L1I-total_miss : 3239496
L1I-load_access : 10015169
L1I-load_hit : 9563292
L1I-load_miss : 451877
L1I-rfo_access : 0
L1I-rfo_hit : 0
L1I-rfo_miss : 0
L1I-prefetch_access : 4415848
L1I-prefetch_hit : 1628229
L1I-prefetch_miss : 2787619
L1I-writeback_access : 0
L1I-writeback_hit : 0
L1I-writeback_miss : 0
L1I-prefetch_requested : 4859402
L1I-prefetch_issued : 4859311
L1I-prefetch_useful : 2667566
L1I-prefetch_useless : 120039
L1I-Avg_miss_latency : 15.7918
L1I-Morteza_fill_l2_prefetches : 0

L2C TOTAL     ACCESS:    7902378  HIT:    6050605  MISS:    1851773
L2C LOAD      ACCESS:     655283  HIT:     386483  MISS:     268800
L2C RFO       ACCESS:     951751  HIT:      19600  MISS:     932151
L2C PREFETCH  ACCESS:    5125312  HIT:    4477298  MISS:     648014
L2C WRITEBACK ACCESS:    1170032  HIT:    1167224  MISS:       2808
L2C PREFETCH  REQUESTED:    5591879  ISSUED:    5582439  USEFUL:      29443  USELESS:     619353
L2C AVERAGE MISS LATENCY: 213.375 cycles
L2C

SHEET
L2C-total_access : 7902378
L2C-total_hit : 6050605
L2C-total_miss : 1851773
L2C-load_access : 655283
L2C-load_hit : 386483
L2C-load_miss : 268800
L2C-rfo_access : 951751
L2C-rfo_hit : 19600
L2C-rfo_miss : 932151
L2C-prefetch_access : 5125312
L2C-prefetch_hit : 4477298
L2C-prefetch_miss : 648014
L2C-writeback_access : 1170032
L2C-writeback_hit : 1167224
L2C-writeback_miss : 2808
L2C-prefetch_requested : 5591879
L2C-prefetch_issued : 5582439
L2C-prefetch_useful : 29443
L2C-prefetch_useless : 619353
L2C-Avg_miss_latency : 213.375
L2C-Morteza_fill_l2_prefetches : 1291750

LLC TOTAL     ACCESS:    4357280  HIT:    2896934  MISS:    1460346
LLC LOAD      ACCESS:     268682  HIT:     171123  MISS:      97559
LLC RFO       ACCESS:     932134  HIT:     134700  MISS:     797434
LLC PREFETCH  ACCESS:    2053959  HIT:    1490826  MISS:     563133
LLC WRITEBACK ACCESS:    1102505  HIT:    1100285  MISS:       2220
LLC PREFETCH  REQUESTED:          0  ISSUED:          0  USEFUL:      31079  USELESS:     532102
LLC AVERAGE MISS LATENCY: 281.096 cycles
LLC

SHEET
LLC-total_access : 4357280
LLC-total_hit : 2896934
LLC-total_miss : 1460346
LLC-load_access : 268682
LLC-load_hit : 171123
LLC-load_miss : 97559
LLC-rfo_access : 932134
LLC-rfo_hit : 134700
LLC-rfo_miss : 797434
LLC-prefetch_access : 2053959
LLC-prefetch_hit : 1490826
LLC-prefetch_miss : 563133
LLC-writeback_access : 1102505
LLC-writeback_hit : 1100285
LLC-writeback_miss : 2220
LLC-prefetch_requested : 0
LLC-prefetch_issued : 0
LLC-prefetch_useful : 31079
LLC-prefetch_useless : 532102
LLC-Avg_miss_latency : 281.096
LLC-Morteza_fill_l2_prefetches : 1157220

Major fault: 0 Minor fault: 22494



Printing Logs
statHeadFound: 233164
statHeadMissing: 1124498
statStreamBufferHit: 11782034
statPrefetchEntryFound: 2973337
statCompactorMatch: 10913455
statStreamTrackerLookup: 13139696
statRecord: 2226241
statGetPointer: 1357662
statEnqueuePrefetch: 9283435
statPrefetchQueueIsFull: 0
StreamBufferHitRate: 0.896675
Regions' size: 1341
next_region_correct: 1869338
next_region_wrong: 355544
next_region_correct_prediction: 0.840196
statStreamBufferLookups: 946058112
statL1iLookups: 74267480
statCompactorLookups: 473029056
morteza: start

SHEET
mana_table_access_counter : 3448538
mana_table_multiple_access_counter : 1985752
hobp_table_access_counter : 22742150
sab_access_counter : 14755371
srq_access_counter : 14280324

morteza: end
CPU 0 L1D next line prefetcher final stats

DRAM Statistics
 CHANNEL 0
 RQ ROW_BUFFER_HIT:     416413  ROW_BUFFER_MISS:    1041461
 DBUS_CONGESTED:    1466671
 WQ ROW_BUFFER_HIT:     247568  ROW_BUFFER_MISS:     649557  FULL:          0

 AVG_CONGESTED_CYCLE: 6

CPU 0 Branch Prediction Accuracy: 99.7114% MPKI: 0.47678 Average ROB Occupancy at Mispredict: 205.952

Branch types
NOT_BRANCH: 41741019 83.482%
BRANCH_DIRECT_JUMP: 458652 0.917304%
BRANCH_INDIRECT: 48282 0.096564%
BRANCH_CONDITIONAL: 5930882 11.8618%
BRANCH_DIRECT_CALL: 744230 1.48846%
BRANCH_INDIRECT_CALL: 166336 0.332672%
BRANCH_RETURN: 910589 1.82118%
BRANCH_OTHER: 0 0%

