Initialize SIGNATURE TABLE
ST_SET: 1
ST_WAY: 256
ST_TAG_BIT: 16
ST_TAG_MASK: ffff

Initialize PATTERN TABLE
PT_SET: 512
PT_WAY: 4
SIG_DELTA_BIT: 7
C_SIG_BIT: 4
C_DELTA_BIT: 4

Initialize PREFETCH FILTER
FILTER_SET: 1024
MANA initialize 
tds: 2 tdm: 4
size MANA SINGLE: 74 KB
size MANA NULTIPLE: 43 KB
size HOBPT: 5 KB
size SRQ: 0.14502 KB
size SABs: 0.290039 KB
size prefetch queue: 0.453125 KB
total: 122.888 KB

*** ChampSim Multicore Out-of-Order Simulator ***

Warmup Instructions: 50000000
Simulation Instructions: 50000000
Number of CPUs: 1
LLC sets: 2048
LLC ways: 16
Off-chip DRAM Size: 4096 MB Channels: 1 Width: 64-bit Data Rate: 3200 MT/s

CPU 0 runs /home/mbaradaran/ChampSim/dpc3_traces/server_031.champsimtrace.xz
CPU 0 L1D next line prefetcher
Heartbeat CPU 0 instructions: 10000003 cycles: 3525099 heartbeat IPC: 2.8368 cumulative IPC: 2.8368 (Simulation time: 0 hr 1 min 29 sec) 
Heartbeat CPU 0 instructions: 20000002 cycles: 7048756 heartbeat IPC: 2.83796 cumulative IPC: 2.83738 (Simulation time: 0 hr 2 min 54 sec) 
Heartbeat CPU 0 instructions: 30000002 cycles: 10572888 heartbeat IPC: 2.83758 cumulative IPC: 2.83745 (Simulation time: 0 hr 4 min 24 sec) 
Heartbeat CPU 0 instructions: 40000003 cycles: 14093217 heartbeat IPC: 2.84064 cumulative IPC: 2.83824 (Simulation time: 0 hr 5 min 52 sec) 
Heartbeat CPU 0 instructions: 50000000 cycles: 17615950 heartbeat IPC: 2.8387 cumulative IPC: 2.83834 (Simulation time: 0 hr 7 min 22 sec) 

Warmup complete CPU 0 instructions: 50000004 cycles: 17615951 (Simulation time: 0 hr 7 min 22 sec) 

Heartbeat CPU 0 instructions: 60000001 cycles: 25423286 heartbeat IPC: 1.28085 cumulative IPC: 1.28085 (Simulation time: 0 hr 8 min 50 sec) 
Heartbeat CPU 0 instructions: 70000002 cycles: 33302358 heartbeat IPC: 1.26919 cumulative IPC: 1.27499 (Simulation time: 0 hr 10 min 18 sec) 
*** Reached end of trace for Core: 0 Repeating trace: /home/mbaradaran/ChampSim/dpc3_traces/server_031.champsimtrace.xz
Heartbeat CPU 0 instructions: 80000000 cycles: 41007660 heartbeat IPC: 1.29781 cumulative IPC: 1.28251 (Simulation time: 0 hr 11 min 38 sec) 
Heartbeat CPU 0 instructions: 90000003 cycles: 48755166 heartbeat IPC: 1.29074 cumulative IPC: 1.28455 (Simulation time: 0 hr 13 min 0 sec) 
Heartbeat CPU 0 instructions: 100000000 cycles: 56455716 heartbeat IPC: 1.29861 cumulative IPC: 1.28734 (Simulation time: 0 hr 14 min 25 sec) 
Finished CPU 0 instructions: 50000000 cycles: 38839770 cumulative IPC: 1.28734 (Simulation time: 0 hr 14 min 25 sec) 

ChampSim completed all CPUs

Region of Interest Statistics

CPU 0 cumulative IPC: 1.28734 instructions: 50000000 cycles: 38839770

SHEET
IPC : 1.28734

L1D TOTAL     ACCESS:   19847967  HIT:   17943681  MISS:    1904286
L1D LOAD      ACCESS:    6929488  HIT:    6057730  MISS:     871758
L1D RFO       ACCESS:    6328185  HIT:    6036586  MISS:     291599
L1D PREFETCH  ACCESS:    6590294  HIT:    5849365  MISS:     740929
L1D WRITEBACK ACCESS:          0  HIT:          0  MISS:          0
L1D PREFETCH  REQUESTED:    6992974  ISSUED:    6888305  USEFUL:     175631  USELESS:     565303
L1D AVERAGE MISS LATENCY: 22.699 cycles
L1D

SHEET
L1D-total_access : 19847967
L1D-total_hit : 17943681
L1D-total_miss : 1904286
L1D-load_access : 6929488
L1D-load_hit : 6057730
L1D-load_miss : 871758
L1D-rfo_access : 6328185
L1D-rfo_hit : 6036586
L1D-rfo_miss : 291599
L1D-prefetch_access : 6590294
L1D-prefetch_hit : 5849365
L1D-prefetch_miss : 740929
L1D-writeback_access : 0
L1D-writeback_hit : 0
L1D-writeback_miss : 0
L1D-prefetch_requested : 6992974
L1D-prefetch_issued : 6888305
L1D-prefetch_useful : 175631
L1D-prefetch_useless : 565303
L1D-Avg_miss_latency : 22.699
L1D-Morteza_fill_l2_prefetches : 0

L1I TOTAL     ACCESS:   15066409  HIT:   10789101  MISS:    4277308
L1I LOAD      ACCESS:    9470843  HIT:    8618687  MISS:     852156
L1I RFO       ACCESS:          0  HIT:          0  MISS:          0
L1I PREFETCH  ACCESS:    5595566  HIT:    2170414  MISS:    3425152
L1I WRITEBACK ACCESS:          0  HIT:          0  MISS:          0
L1I PREFETCH  REQUESTED:    6434554  ISSUED:    6434218  USEFUL:    2573964  USELESS:     851183
L1I AVERAGE MISS LATENCY: 15.43 cycles
L1I

SHEET
L1I-total_access : 15066409
L1I-total_hit : 10789101
L1I-total_miss : 4277308
L1I-load_access : 9470843
L1I-load_hit : 8618687
L1I-load_miss : 852156
L1I-rfo_access : 0
L1I-rfo_hit : 0
L1I-rfo_miss : 0
L1I-prefetch_access : 5595566
L1I-prefetch_hit : 2170414
L1I-prefetch_miss : 3425152
L1I-writeback_access : 0
L1I-writeback_hit : 0
L1I-writeback_miss : 0
L1I-prefetch_requested : 6434554
L1I-prefetch_issued : 6434218
L1I-prefetch_useful : 2573964
L1I-prefetch_useless : 851183
L1I-Avg_miss_latency : 15.43
L1I-Morteza_fill_l2_prefetches : 0

L2C TOTAL     ACCESS:    8608858  HIT:    7984543  MISS:     624315
L2C LOAD      ACCESS:    1240623  HIT:    1097179  MISS:     143444
L2C RFO       ACCESS:     289684  HIT:     237039  MISS:      52645
L2C PREFETCH  ACCESS:    6461818  HIT:    6037702  MISS:     424116
L2C WRITEBACK ACCESS:     616733  HIT:     612623  MISS:       4110
L2C PREFETCH  REQUESTED:    7869458  ISSUED:    7838810  USEFUL:      14379  USELESS:     409023
L2C AVERAGE MISS LATENCY: 44.973 cycles
L2C

SHEET
L2C-total_access : 8608858
L2C-total_hit : 7984543
L2C-total_miss : 624315
L2C-load_access : 1240623
L2C-load_hit : 1097179
L2C-load_miss : 143444
L2C-rfo_access : 289684
L2C-rfo_hit : 237039
L2C-rfo_miss : 52645
L2C-prefetch_access : 6461818
L2C-prefetch_hit : 6037702
L2C-prefetch_miss : 424116
L2C-writeback_access : 616733
L2C-writeback_hit : 612623
L2C-writeback_miss : 4110
L2C-prefetch_requested : 7869458
L2C-prefetch_issued : 7838810
L2C-prefetch_useful : 14379
L2C-prefetch_useless : 409023
L2C-Avg_miss_latency : 44.973
L2C-Morteza_fill_l2_prefetches : 1849779

LLC TOTAL     ACCESS:    3042927  HIT:    2953189  MISS:      89738
LLC LOAD      ACCESS:     143419  HIT:     124372  MISS:      19047
LLC RFO       ACCESS:      52645  HIT:      48455  MISS:       4190
LLC PREFETCH  ACCESS:    2752785  HIT:    2686905  MISS:      65880
LLC WRITEBACK ACCESS:      94078  HIT:      93457  MISS:        621
LLC PREFETCH  REQUESTED:          0  ISSUED:          0  USEFUL:       3128  USELESS:      61672
LLC AVERAGE MISS LATENCY: 161.671 cycles
LLC

SHEET
LLC-total_access : 3042927
LLC-total_hit : 2953189
LLC-total_miss : 89738
LLC-load_access : 143419
LLC-load_hit : 124372
LLC-load_miss : 19047
LLC-rfo_access : 52645
LLC-rfo_hit : 48455
LLC-rfo_miss : 4190
LLC-prefetch_access : 2752785
LLC-prefetch_hit : 2686905
LLC-prefetch_miss : 65880
LLC-writeback_access : 94078
LLC-writeback_hit : 93457
LLC-writeback_miss : 621
LLC-prefetch_requested : 0
LLC-prefetch_issued : 0
LLC-prefetch_useful : 3128
LLC-prefetch_useless : 61672
LLC-Avg_miss_latency : 161.671
LLC-Morteza_fill_l2_prefetches : 2299459

Major fault: 0 Minor fault: 6105



Printing Logs
statHeadFound: 617811
statHeadMissing: 599599
statStreamBufferHit: 13159454
statPrefetchEntryFound: 4389587
statCompactorMatch: 11615980
statStreamTrackerLookup: 14376864
statRecord: 2760884
statGetPointer: 1217410
statEnqueuePrefetch: 12875888
statPrefetchQueueIsFull: 0
StreamBufferHitRate: 0.915322
Regions' size: 2100
next_region_correct: 1935478
next_region_wrong: 823288
next_region_correct_prediction: 0.701574
statStreamBufferLookups: 1035134208
statL1iLookups: 103007104
statCompactorLookups: 517567104
morteza: start

SHEET
mana_table_access_counter : 4336867
mana_table_multiple_access_counter : 3434535
hobp_table_access_counter : 25177593
sab_access_counter : 17549041
srq_access_counter : 15828783

morteza: end
CPU 0 L1D next line prefetcher final stats

DRAM Statistics
 CHANNEL 0
 RQ ROW_BUFFER_HIT:      24614  ROW_BUFFER_MISS:      64493
 DBUS_CONGESTED:      40359
 WQ ROW_BUFFER_HIT:        749  ROW_BUFFER_MISS:       5348  FULL:          0

 AVG_CONGESTED_CYCLE: 5

CPU 0 Branch Prediction Accuracy: 99.6894% MPKI: 0.58048 Average ROB Occupancy at Mispredict: 133.607

Branch types
NOT_BRANCH: 40655617 81.3112%
BRANCH_DIRECT_JUMP: 546484 1.09297%
BRANCH_INDIRECT: 172433 0.344866%
BRANCH_CONDITIONAL: 6207576 12.4152%
BRANCH_DIRECT_CALL: 1018498 2.037%
BRANCH_INDIRECT_CALL: 190373 0.380746%
BRANCH_RETURN: 1208857 2.41771%
BRANCH_OTHER: 0 0%

