Initialize SIGNATURE TABLE
ST_SET: 1
ST_WAY: 256
ST_TAG_BIT: 16
ST_TAG_MASK: ffff

Initialize PATTERN TABLE
PT_SET: 512
PT_WAY: 4
SIG_DELTA_BIT: 7
C_SIG_BIT: 4
C_DELTA_BIT: 4

Initialize PREFETCH FILTER
FILTER_SET: 1024
MANA initialize 
tds: 2 tdm: 4
size MANA SINGLE: 74 KB
size MANA NULTIPLE: 43 KB
size HOBPT: 5 KB
size SRQ: 0.14502 KB
size SABs: 0.290039 KB
size prefetch queue: 0.453125 KB
total: 122.888 KB

*** ChampSim Multicore Out-of-Order Simulator ***

Warmup Instructions: 50000000
Simulation Instructions: 50000000
Number of CPUs: 1
LLC sets: 2048
LLC ways: 16
Off-chip DRAM Size: 4096 MB Channels: 1 Width: 64-bit Data Rate: 3200 MT/s

CPU 0 runs /home/mbaradaran/ChampSim/dpc3_traces/spec_gobmk_001.champsimtrace.xz
CPU 0 L1D next line prefetcher
Heartbeat CPU 0 instructions: 10000003 cycles: 3507390 heartbeat IPC: 2.85112 cumulative IPC: 2.85112 (Simulation time: 0 hr 1 min 6 sec) 
Heartbeat CPU 0 instructions: 20000002 cycles: 6988092 heartbeat IPC: 2.87298 cumulative IPC: 2.86201 (Simulation time: 0 hr 2 min 9 sec) 
Heartbeat CPU 0 instructions: 30000002 cycles: 10507718 heartbeat IPC: 2.84121 cumulative IPC: 2.85504 (Simulation time: 0 hr 3 min 11 sec) 
Heartbeat CPU 0 instructions: 40000001 cycles: 14027268 heartbeat IPC: 2.84127 cumulative IPC: 2.85159 (Simulation time: 0 hr 4 min 11 sec) 
Heartbeat CPU 0 instructions: 50000001 cycles: 17568002 heartbeat IPC: 2.82427 cumulative IPC: 2.84608 (Simulation time: 0 hr 5 min 10 sec) 

Warmup complete CPU 0 instructions: 50000001 cycles: 17568002 (Simulation time: 0 hr 5 min 10 sec) 

Heartbeat CPU 0 instructions: 60000000 cycles: 26736253 heartbeat IPC: 1.09072 cumulative IPC: 1.09072 (Simulation time: 0 hr 5 min 58 sec) 
Heartbeat CPU 0 instructions: 70000002 cycles: 35621306 heartbeat IPC: 1.12549 cumulative IPC: 1.10783 (Simulation time: 0 hr 6 min 44 sec) 
Heartbeat CPU 0 instructions: 80000003 cycles: 44795548 heartbeat IPC: 1.09001 cumulative IPC: 1.10183 (Simulation time: 0 hr 7 min 30 sec) 
Heartbeat CPU 0 instructions: 90000001 cycles: 53577275 heartbeat IPC: 1.13873 cumulative IPC: 1.11082 (Simulation time: 0 hr 8 min 16 sec) 
Heartbeat CPU 0 instructions: 100000000 cycles: 62772742 heartbeat IPC: 1.08749 cumulative IPC: 1.10608 (Simulation time: 0 hr 9 min 3 sec) 
Finished CPU 0 instructions: 50000002 cycles: 45204746 cumulative IPC: 1.10608 (Simulation time: 0 hr 9 min 3 sec) 

ChampSim completed all CPUs

Region of Interest Statistics

CPU 0 cumulative IPC: 1.10608 instructions: 50000002 cycles: 45204746

SHEET
IPC : 1.10608

L1D TOTAL     ACCESS:   18121179  HIT:   17741565  MISS:     379614
L1D LOAD      ACCESS:    7276434  HIT:    7141710  MISS:     134724
L1D RFO       ACCESS:    3706713  HIT:    3602243  MISS:     104470
L1D PREFETCH  ACCESS:    7138032  HIT:    6997612  MISS:     140420
L1D WRITEBACK ACCESS:          0  HIT:          0  MISS:          0
L1D PREFETCH  REQUESTED:    7281463  ISSUED:    7198677  USEFUL:      45684  USELESS:      94742
L1D AVERAGE MISS LATENCY: 32.6406 cycles
L1D

SHEET
L1D-total_access : 18121179
L1D-total_hit : 17741565
L1D-total_miss : 379614
L1D-load_access : 7276434
L1D-load_hit : 7141710
L1D-load_miss : 134724
L1D-rfo_access : 3706713
L1D-rfo_hit : 3602243
L1D-rfo_miss : 104470
L1D-prefetch_access : 7138032
L1D-prefetch_hit : 6997612
L1D-prefetch_miss : 140420
L1D-writeback_access : 0
L1D-writeback_hit : 0
L1D-writeback_miss : 0
L1D-prefetch_requested : 7281463
L1D-prefetch_issued : 7198677
L1D-prefetch_useful : 45684
L1D-prefetch_useless : 94742
L1D-Avg_miss_latency : 32.6406
L1D-Morteza_fill_l2_prefetches : 0

L1I TOTAL     ACCESS:   15765824  HIT:   13602253  MISS:    2163571
L1I LOAD      ACCESS:    8988707  HIT:    8637830  MISS:     350877
L1I RFO       ACCESS:          0  HIT:          0  MISS:          0
L1I PREFETCH  ACCESS:    6777117  HIT:    4964423  MISS:    1812694
L1I WRITEBACK ACCESS:          0  HIT:          0  MISS:          0
L1I PREFETCH  REQUESTED:    7467456  ISSUED:    7407800  USEFUL:    1128987  USELESS:     683684
L1I AVERAGE MISS LATENCY: 14.7119 cycles
L1I

SHEET
L1I-total_access : 15765824
L1I-total_hit : 13602253
L1I-total_miss : 2163571
L1I-load_access : 8988707
L1I-load_hit : 8637830
L1I-load_miss : 350877
L1I-rfo_access : 0
L1I-rfo_hit : 0
L1I-rfo_miss : 0
L1I-prefetch_access : 6777117
L1I-prefetch_hit : 4964423
L1I-prefetch_miss : 1812694
L1I-writeback_access : 0
L1I-writeback_hit : 0
L1I-writeback_miss : 0
L1I-prefetch_requested : 7467456
L1I-prefetch_issued : 7407800
L1I-prefetch_useful : 1128987
L1I-prefetch_useless : 683684
L1I-Avg_miss_latency : 14.7119
L1I-Morteza_fill_l2_prefetches : 0

L2C TOTAL     ACCESS:    3830310  HIT:    3706694  MISS:     123616
L2C LOAD      ACCESS:     394427  HIT:     358396  MISS:      36031
L2C RFO       ACCESS:     104184  HIT:      71857  MISS:      32327
L2C PREFETCH  ACCESS:    3192397  HIT:    3137186  MISS:      55211
L2C WRITEBACK ACCESS:     139302  HIT:     139255  MISS:         47
L2C PREFETCH  REQUESTED:    3060677  ISSUED:    3060413  USEFUL:       4892  USELESS:      50676
L2C AVERAGE MISS LATENCY: 62.8387 cycles
L2C

SHEET
L2C-total_access : 3830310
L2C-total_hit : 3706694
L2C-total_miss : 123616
L2C-load_access : 394427
L2C-load_hit : 358396
L2C-load_miss : 36031
L2C-rfo_access : 104184
L2C-rfo_hit : 71857
L2C-rfo_miss : 32327
L2C-prefetch_access : 3192397
L2C-prefetch_hit : 3137186
L2C-prefetch_miss : 55211
L2C-writeback_access : 139302
L2C-writeback_hit : 139255
L2C-writeback_miss : 47
L2C-prefetch_requested : 3060677
L2C-prefetch_issued : 3060413
L2C-prefetch_useful : 4892
L2C-prefetch_useless : 50676
L2C-Avg_miss_latency : 62.8387
L2C-Morteza_fill_l2_prefetches : 1164450

LLC TOTAL     ACCESS:     388822  HIT:     351131  MISS:      37691
LLC LOAD      ACCESS:      36031  HIT:      27895  MISS:       8136
LLC RFO       ACCESS:      32327  HIT:      26840  MISS:       5487
LLC PREFETCH  ACCESS:     277319  HIT:     253567  MISS:      23752
LLC WRITEBACK ACCESS:      43145  HIT:      42829  MISS:        316
LLC PREFETCH  REQUESTED:          0  ISSUED:          0  USEFUL:       1588  USELESS:      20134
LLC AVERAGE MISS LATENCY: 178.466 cycles
LLC

SHEET
LLC-total_access : 388822
LLC-total_hit : 351131
LLC-total_miss : 37691
LLC-load_access : 36031
LLC-load_hit : 27895
LLC-load_miss : 8136
LLC-rfo_access : 32327
LLC-rfo_hit : 26840
LLC-rfo_miss : 5487
LLC-prefetch_access : 277319
LLC-prefetch_hit : 253567
LLC-prefetch_miss : 23752
LLC-writeback_access : 43145
LLC-writeback_hit : 42829
LLC-writeback_miss : 316
LLC-prefetch_requested : 0
LLC-prefetch_issued : 0
LLC-prefetch_useful : 1588
LLC-prefetch_useless : 20134
LLC-Avg_miss_latency : 178.466
LLC-Morteza_fill_l2_prefetches : 209310

Major fault: 0 Minor fault: 4257



Printing Logs
statHeadFound: 854067
statHeadMissing: 291209
statStreamBufferHit: 11662776
statPrefetchEntryFound: 3552362
statCompactorMatch: 11779110
statStreamTrackerLookup: 12808052
statRecord: 1028942
statGetPointer: 1145276
statEnqueuePrefetch: 13861860
statPrefetchQueueIsFull: 15429
StreamBufferHitRate: 0.910582
Regions' size: 3114
next_region_correct: 539479
next_region_wrong: 486331
next_region_correct_prediction: 0.525905
statStreamBufferLookups: 922179744
statL1iLookups: 110894880
statCompactorLookups: 461089872
morteza: start

SHEET
mana_table_access_counter : 1311430
mana_table_multiple_access_counter : 4143993
hobp_table_access_counter : 16853441
sab_access_counter : 15215138
srq_access_counter : 12485655

morteza: end
CPU 0 L1D next line prefetcher final stats

DRAM Statistics
 CHANNEL 0
 RQ ROW_BUFFER_HIT:       3975  ROW_BUFFER_MISS:      33392
 DBUS_CONGESTED:      22555
 WQ ROW_BUFFER_HIT:       1240  ROW_BUFFER_MISS:      14676  FULL:          0

 AVG_CONGESTED_CYCLE: 4

CPU 0 Branch Prediction Accuracy: 94.7729% MPKI: 9.72684 Average ROB Occupancy at Mispredict: 50.8122

Branch types
NOT_BRANCH: 40695383 81.3908%
BRANCH_DIRECT_JUMP: 422107 0.844214%
BRANCH_INDIRECT: 65 0.00013%
BRANCH_CONDITIONAL: 8105005 16.21%
BRANCH_DIRECT_CALL: 374913 0.749826%
BRANCH_INDIRECT_CALL: 13657 0.027314%
BRANCH_RETURN: 388556 0.777112%
BRANCH_OTHER: 0 0%

