Initialize SIGNATURE TABLE
ST_SET: 1
ST_WAY: 256
ST_TAG_BIT: 16
ST_TAG_MASK: ffff

Initialize PATTERN TABLE
PT_SET: 512
PT_WAY: 4
SIG_DELTA_BIT: 7
C_SIG_BIT: 4
C_DELTA_BIT: 4

Initialize PREFETCH FILTER
FILTER_SET: 1024
MANA initialize 
tds: 2 tdm: 4
size MANA SINGLE: 74 KB
size MANA NULTIPLE: 43 KB
size HOBPT: 5 KB
size SRQ: 0.14502 KB
size SABs: 0.290039 KB
size prefetch queue: 0.453125 KB
total: 122.888 KB

*** ChampSim Multicore Out-of-Order Simulator ***

Warmup Instructions: 50000000
Simulation Instructions: 50000000
Number of CPUs: 1
LLC sets: 2048
LLC ways: 16
Off-chip DRAM Size: 4096 MB Channels: 1 Width: 64-bit Data Rate: 3200 MT/s

CPU 0 runs /home/mbaradaran/ChampSim/dpc3_traces/spec_gobmk_002.champsimtrace.xz
CPU 0 L1D next line prefetcher
Heartbeat CPU 0 instructions: 10000001 cycles: 3287638 heartbeat IPC: 3.0417 cumulative IPC: 3.0417 (Simulation time: 0 hr 1 min 6 sec) 
Heartbeat CPU 0 instructions: 20000000 cycles: 6619398 heartbeat IPC: 3.00142 cumulative IPC: 3.02142 (Simulation time: 0 hr 2 min 10 sec) 
Heartbeat CPU 0 instructions: 30000000 cycles: 9957513 heartbeat IPC: 2.9957 cumulative IPC: 3.0128 (Simulation time: 0 hr 3 min 13 sec) 
Heartbeat CPU 0 instructions: 40000000 cycles: 13267108 heartbeat IPC: 3.02152 cumulative IPC: 3.01498 (Simulation time: 0 hr 4 min 17 sec) 
Heartbeat CPU 0 instructions: 50000003 cycles: 16530762 heartbeat IPC: 3.06405 cumulative IPC: 3.02466 (Simulation time: 0 hr 5 min 21 sec) 

Warmup complete CPU 0 instructions: 50000003 cycles: 16530762 (Simulation time: 0 hr 5 min 21 sec) 

Heartbeat CPU 0 instructions: 60000001 cycles: 24478281 heartbeat IPC: 1.25825 cumulative IPC: 1.25825 (Simulation time: 0 hr 6 min 8 sec) 
Heartbeat CPU 0 instructions: 70000001 cycles: 32367172 heartbeat IPC: 1.26761 cumulative IPC: 1.26291 (Simulation time: 0 hr 6 min 54 sec) 
Heartbeat CPU 0 instructions: 80000000 cycles: 40132714 heartbeat IPC: 1.28774 cumulative IPC: 1.27108 (Simulation time: 0 hr 7 min 39 sec) 
Heartbeat CPU 0 instructions: 90000000 cycles: 48114596 heartbeat IPC: 1.25284 cumulative IPC: 1.26647 (Simulation time: 0 hr 8 min 21 sec) 
Heartbeat CPU 0 instructions: 100000003 cycles: 56361124 heartbeat IPC: 1.21263 cumulative IPC: 1.25532 (Simulation time: 0 hr 9 min 5 sec) 
Finished CPU 0 instructions: 50000000 cycles: 39830362 cumulative IPC: 1.25532 (Simulation time: 0 hr 9 min 5 sec) 

ChampSim completed all CPUs

Region of Interest Statistics

CPU 0 cumulative IPC: 1.25532 instructions: 50000000 cycles: 39830362

SHEET
IPC : 1.25532

L1D TOTAL     ACCESS:   17813439  HIT:   17690303  MISS:     123136
L1D LOAD      ACCESS:    6749659  HIT:    6715492  MISS:      34167
L1D RFO       ACCESS:    4392523  HIT:    4349863  MISS:      42660
L1D PREFETCH  ACCESS:    6671257  HIT:    6624948  MISS:      46309
L1D WRITEBACK ACCESS:          0  HIT:          0  MISS:          0
L1D PREFETCH  REQUESTED:    6751909  ISSUED:    6684413  USEFUL:      17235  USELESS:      29256
L1D AVERAGE MISS LATENCY: 49.8188 cycles
L1D

SHEET
L1D-total_access : 17813439
L1D-total_hit : 17690303
L1D-total_miss : 123136
L1D-load_access : 6749659
L1D-load_hit : 6715492
L1D-load_miss : 34167
L1D-rfo_access : 4392523
L1D-rfo_hit : 4349863
L1D-rfo_miss : 42660
L1D-prefetch_access : 6671257
L1D-prefetch_hit : 6624948
L1D-prefetch_miss : 46309
L1D-writeback_access : 0
L1D-writeback_hit : 0
L1D-writeback_miss : 0
L1D-prefetch_requested : 6751909
L1D-prefetch_issued : 6684413
L1D-prefetch_useful : 17235
L1D-prefetch_useless : 29256
L1D-Avg_miss_latency : 49.8188
L1D-Morteza_fill_l2_prefetches : 0

L1I TOTAL     ACCESS:   18098815  HIT:   15098572  MISS:    3000243
L1I LOAD      ACCESS:    8904374  HIT:    8421757  MISS:     482617
L1I RFO       ACCESS:          0  HIT:          0  MISS:          0
L1I PREFETCH  ACCESS:    9194441  HIT:    6676815  MISS:    2517626
L1I WRITEBACK ACCESS:          0  HIT:          0  MISS:          0
L1I PREFETCH  REQUESTED:   10115070  ISSUED:   10021703  USEFUL:    1581251  USELESS:     936376
L1I AVERAGE MISS LATENCY: 14.3728 cycles
L1I

SHEET
L1I-total_access : 18098815
L1I-total_hit : 15098572
L1I-total_miss : 3000243
L1I-load_access : 8904374
L1I-load_hit : 8421757
L1I-load_miss : 482617
L1I-rfo_access : 0
L1I-rfo_hit : 0
L1I-rfo_miss : 0
L1I-prefetch_access : 9194441
L1I-prefetch_hit : 6676815
L1I-prefetch_miss : 2517626
L1I-writeback_access : 0
L1I-writeback_hit : 0
L1I-writeback_miss : 0
L1I-prefetch_requested : 10115070
L1I-prefetch_issued : 10021703
L1I-prefetch_useful : 1581251
L1I-prefetch_useless : 936376
L1I-Avg_miss_latency : 14.3728
L1I-Morteza_fill_l2_prefetches : 0

L2C TOTAL     ACCESS:    4685375  HIT:    4647727  MISS:      37648
L2C LOAD      ACCESS:     424656  HIT:     410889  MISS:      13767
L2C RFO       ACCESS:      42568  HIT:      39650  MISS:       2918
L2C PREFETCH  ACCESS:    4143946  HIT:    4123139  MISS:      20807
L2C WRITEBACK ACCESS:      74205  HIT:      74049  MISS:        156
L2C PREFETCH  REQUESTED:    3718863  ISSUED:    3718696  USEFUL:       2285  USELESS:      18948
L2C AVERAGE MISS LATENCY: 122.284 cycles
L2C

SHEET
L2C-total_access : 4685375
L2C-total_hit : 4647727
L2C-total_miss : 37648
L2C-load_access : 424656
L2C-load_hit : 410889
L2C-load_miss : 13767
L2C-rfo_access : 42568
L2C-rfo_hit : 39650
L2C-rfo_miss : 2918
L2C-prefetch_access : 4143946
L2C-prefetch_hit : 4123139
L2C-prefetch_miss : 20807
L2C-writeback_access : 74205
L2C-writeback_hit : 74049
L2C-writeback_miss : 156
L2C-prefetch_requested : 3718863
L2C-prefetch_issued : 3718696
L2C-prefetch_useful : 2285
L2C-prefetch_useless : 18948
L2C-Avg_miss_latency : 122.284
L2C-Morteza_fill_l2_prefetches : 1507623

LLC TOTAL     ACCESS:     199893  HIT:     163515  MISS:      36378
LLC LOAD      ACCESS:      13767  HIT:       5226  MISS:       8541
LLC RFO       ACCESS:       2918  HIT:       1306  MISS:       1612
LLC PREFETCH  ACCESS:     165006  HIT:     139395  MISS:      25611
LLC WRITEBACK ACCESS:      18202  HIT:      17588  MISS:        614
LLC PREFETCH  REQUESTED:          0  ISSUED:          0  USEFUL:       2516  USELESS:      23050
LLC AVERAGE MISS LATENCY: 183.661 cycles
LLC

SHEET
LLC-total_access : 199893
LLC-total_hit : 163515
LLC-total_miss : 36378
LLC-load_access : 13767
LLC-load_hit : 5226
LLC-load_miss : 8541
LLC-rfo_access : 2918
LLC-rfo_hit : 1306
LLC-rfo_miss : 1612
LLC-prefetch_access : 165006
LLC-prefetch_hit : 139395
LLC-prefetch_miss : 25611
LLC-writeback_access : 18202
LLC-writeback_hit : 17588
LLC-writeback_miss : 614
LLC-prefetch_requested : 0
LLC-prefetch_issued : 0
LLC-prefetch_useful : 2516
LLC-prefetch_useless : 23050
LLC-Avg_miss_latency : 183.661
LLC-Morteza_fill_l2_prefetches : 127079

Major fault: 0 Minor fault: 2865



Printing Logs
statHeadFound: 1153586
statHeadMissing: 578072
statStreamBufferHit: 11076586
statPrefetchEntryFound: 4838128
statCompactorMatch: 11386500
statStreamTrackerLookup: 12808244
statRecord: 1421744
statGetPointer: 1731658
statEnqueuePrefetch: 19307048
statPrefetchQueueIsFull: 46764
StreamBufferHitRate: 0.864801
Regions' size: 3214
next_region_correct: 763187
next_region_wrong: 655325
next_region_correct_prediction: 0.538019
statStreamBufferLookups: 922193568
statL1iLookups: 154456384
statCompactorLookups: 461096784
morteza: start

SHEET
mana_table_access_counter : 1647368
mana_table_multiple_access_counter : 5817483
hobp_table_access_counter : 24432816
sab_access_counter : 15914714
srq_access_counter : 13010367

morteza: end
CPU 0 L1D next line prefetcher final stats

DRAM Statistics
 CHANNEL 0
 RQ ROW_BUFFER_HIT:       2829  ROW_BUFFER_MISS:      32935
 DBUS_CONGESTED:      19024
 WQ ROW_BUFFER_HIT:        767  ROW_BUFFER_MISS:      13703  FULL:          0

 AVG_CONGESTED_CYCLE: 4

CPU 0 Branch Prediction Accuracy: 93.9974% MPKI: 10.2447 Average ROB Occupancy at Mispredict: 36.086

Branch types
NOT_BRANCH: 41466058 82.9321%
BRANCH_DIRECT_JUMP: 464313 0.928626%
BRANCH_INDIRECT: 32 6.4e-05%
BRANCH_CONDITIONAL: 7069453 14.1389%
BRANCH_DIRECT_CALL: 499587 0.999174%
BRANCH_INDIRECT_CALL: 342 0.000684%
BRANCH_RETURN: 499906 0.999812%
BRANCH_OTHER: 0 0%

