Initialize SIGNATURE TABLE
ST_SET: 1
ST_WAY: 256
ST_TAG_BIT: 16
ST_TAG_MASK: ffff

Initialize PATTERN TABLE
PT_SET: 512
PT_WAY: 4
SIG_DELTA_BIT: 7
C_SIG_BIT: 4
C_DELTA_BIT: 4

Initialize PREFETCH FILTER
FILTER_SET: 1024
MANA initialize 
tds: 2 tdm: 4
size MANA SINGLE: 74 KB
size MANA NULTIPLE: 43 KB
size HOBPT: 5 KB
size SRQ: 0.14502 KB
size SABs: 0.290039 KB
size prefetch queue: 0.453125 KB
total: 122.888 KB

*** ChampSim Multicore Out-of-Order Simulator ***

Warmup Instructions: 50000000
Simulation Instructions: 50000000
Number of CPUs: 1
LLC sets: 2048
LLC ways: 16
Off-chip DRAM Size: 4096 MB Channels: 1 Width: 64-bit Data Rate: 3200 MT/s

CPU 0 runs /home/mbaradaran/ChampSim/dpc3_traces/spec_gcc_003.champsimtrace.xz
CPU 0 L1D next line prefetcher
Heartbeat CPU 0 instructions: 10000001 cycles: 3482084 heartbeat IPC: 2.87184 cumulative IPC: 2.87184 (Simulation time: 0 hr 1 min 13 sec) 
Heartbeat CPU 0 instructions: 20000000 cycles: 6949357 heartbeat IPC: 2.88411 cumulative IPC: 2.87796 (Simulation time: 0 hr 2 min 20 sec) 
Heartbeat CPU 0 instructions: 30000002 cycles: 10394820 heartbeat IPC: 2.90237 cumulative IPC: 2.88605 (Simulation time: 0 hr 3 min 29 sec) 
Heartbeat CPU 0 instructions: 40000000 cycles: 13862010 heartbeat IPC: 2.88418 cumulative IPC: 2.88558 (Simulation time: 0 hr 4 min 36 sec) 
Heartbeat CPU 0 instructions: 50000001 cycles: 17172553 heartbeat IPC: 3.02065 cumulative IPC: 2.91162 (Simulation time: 0 hr 5 min 35 sec) 

Warmup complete CPU 0 instructions: 50000001 cycles: 17172553 (Simulation time: 0 hr 5 min 35 sec) 

Heartbeat CPU 0 instructions: 60000000 cycles: 55896274 heartbeat IPC: 0.25824 cumulative IPC: 0.25824 (Simulation time: 0 hr 8 min 2 sec) 
Heartbeat CPU 0 instructions: 70000000 cycles: 96855168 heartbeat IPC: 0.244147 cumulative IPC: 0.250996 (Simulation time: 0 hr 10 min 29 sec) 
Heartbeat CPU 0 instructions: 80000003 cycles: 138727921 heartbeat IPC: 0.238819 cumulative IPC: 0.246801 (Simulation time: 0 hr 12 min 56 sec) 
Heartbeat CPU 0 instructions: 90000002 cycles: 174129820 heartbeat IPC: 0.282471 cumulative IPC: 0.254846 (Simulation time: 0 hr 15 min 3 sec) 
Heartbeat CPU 0 instructions: 100000001 cycles: 218244831 heartbeat IPC: 0.22668 cumulative IPC: 0.248667 (Simulation time: 0 hr 17 min 33 sec) 
Finished CPU 0 instructions: 50000000 cycles: 201072278 cumulative IPC: 0.248667 (Simulation time: 0 hr 17 min 33 sec) 

ChampSim completed all CPUs

Region of Interest Statistics

CPU 0 cumulative IPC: 0.248667 instructions: 50000000 cycles: 201072278

SHEET
IPC : 0.248667

L1D TOTAL     ACCESS:   17068162  HIT:   11343763  MISS:    5724399
L1D LOAD      ACCESS:    4663634  HIT:    4281117  MISS:     382517
L1D RFO       ACCESS:    8226088  HIT:    3174414  MISS:    5051674
L1D PREFETCH  ACCESS:    4178440  HIT:    3888232  MISS:     290208
L1D WRITEBACK ACCESS:          0  HIT:          0  MISS:          0
L1D PREFETCH  REQUESTED:    4681642  ISSUED:    4624224  USEFUL:     152659  USELESS:     137729
L1D AVERAGE MISS LATENCY: 474.425 cycles
L1D

SHEET
L1D-total_access : 17068162
L1D-total_hit : 11343763
L1D-total_miss : 5724399
L1D-load_access : 4663634
L1D-load_hit : 4281117
L1D-load_miss : 382517
L1D-rfo_access : 8226088
L1D-rfo_hit : 3174414
L1D-rfo_miss : 5051674
L1D-prefetch_access : 4178440
L1D-prefetch_hit : 3888232
L1D-prefetch_miss : 290208
L1D-writeback_access : 0
L1D-writeback_hit : 0
L1D-writeback_miss : 0
L1D-prefetch_requested : 4681642
L1D-prefetch_issued : 4624224
L1D-prefetch_useful : 152659
L1D-prefetch_useless : 137729
L1D-Avg_miss_latency : 474.425
L1D-Morteza_fill_l2_prefetches : 0

L1I TOTAL     ACCESS:   14708475  HIT:   13094885  MISS:    1613590
L1I LOAD      ACCESS:   11247278  HIT:   10874322  MISS:     372956
L1I RFO       ACCESS:          0  HIT:          0  MISS:          0
L1I PREFETCH  ACCESS:    3461197  HIT:    2220563  MISS:    1240634
L1I WRITEBACK ACCESS:          0  HIT:          0  MISS:          0
L1I PREFETCH  REQUESTED:    4000092  ISSUED:    3899330  USEFUL:     749696  USELESS:     490887
L1I AVERAGE MISS LATENCY: 38.2574 cycles
L1I

SHEET
L1I-total_access : 14708475
L1I-total_hit : 13094885
L1I-total_miss : 1613590
L1I-load_access : 11247278
L1I-load_hit : 10874322
L1I-load_miss : 372956
L1I-rfo_access : 0
L1I-rfo_hit : 0
L1I-rfo_miss : 0
L1I-prefetch_access : 3461197
L1I-prefetch_hit : 2220563
L1I-prefetch_miss : 1240634
L1I-writeback_access : 0
L1I-writeback_hit : 0
L1I-writeback_miss : 0
L1I-prefetch_requested : 4000092
L1I-prefetch_issued : 3899330
L1I-prefetch_useful : 749696
L1I-prefetch_useless : 490887
L1I-Avg_miss_latency : 38.2574
L1I-Morteza_fill_l2_prefetches : 0

L2C TOTAL     ACCESS:   12945933  HIT:    6890562  MISS:    6055371
L2C LOAD      ACCESS:     462340  HIT:     224080  MISS:     238260
L2C RFO       ACCESS:    5049945  HIT:       6523  MISS:    5043422
L2C PREFETCH  ACCESS:    2275737  HIT:    1502281  MISS:     773456
L2C WRITEBACK ACCESS:    5157911  HIT:    5157678  MISS:        233
L2C PREFETCH  REQUESTED:    2690775  ISSUED:    2690383  USEFUL:      84105  USELESS:     686464
L2C AVERAGE MISS LATENCY: 444.417 cycles
L2C

SHEET
L2C-total_access : 12945933
L2C-total_hit : 6890562
L2C-total_miss : 6055371
L2C-load_access : 462340
L2C-load_hit : 224080
L2C-load_miss : 238260
L2C-rfo_access : 5049945
L2C-rfo_hit : 6523
L2C-rfo_miss : 5043422
L2C-prefetch_access : 2275737
L2C-prefetch_hit : 1502281
L2C-prefetch_miss : 773456
L2C-writeback_access : 5157911
L2C-writeback_hit : 5157678
L2C-writeback_miss : 233
L2C-prefetch_requested : 2690775
L2C-prefetch_issued : 2690383
L2C-prefetch_useful : 84105
L2C-prefetch_useless : 686464
L2C-Avg_miss_latency : 444.417
L2C-Morteza_fill_l2_prefetches : 413978

LLC TOTAL     ACCESS:   12114729  HIT:    7665046  MISS:    4449683
LLC LOAD      ACCESS:     238219  HIT:     183885  MISS:      54334
LLC RFO       ACCESS:    5043422  HIT:     882188  MISS:    4161234
LLC PREFETCH  ACCESS:    1699494  HIT:    1465379  MISS:     234115
LLC WRITEBACK ACCESS:    5133594  HIT:    5133594  MISS:          0
LLC PREFETCH  REQUESTED:          0  ISSUED:          0  USEFUL:      18836  USELESS:     215154
LLC AVERAGE MISS LATENCY: 570.539 cycles
LLC

SHEET
LLC-total_access : 12114729
LLC-total_hit : 7665046
LLC-total_miss : 4449683
LLC-load_access : 238219
LLC-load_hit : 183885
LLC-load_miss : 54334
LLC-rfo_access : 5043422
LLC-rfo_hit : 882188
LLC-rfo_miss : 4161234
LLC-prefetch_access : 1699494
LLC-prefetch_hit : 1465379
LLC-prefetch_miss : 234115
LLC-writeback_access : 5133594
LLC-writeback_hit : 5133594
LLC-writeback_miss : 0
LLC-prefetch_requested : 0
LLC-prefetch_issued : 0
LLC-prefetch_useful : 18836
LLC-prefetch_useless : 215154
LLC-Avg_miss_latency : 570.539
LLC-Morteza_fill_l2_prefetches : 928087

Major fault: 0 Minor fault: 2914



Printing Logs
statHeadFound: 515341
statHeadMissing: 2039137
statStreamBufferHit: 7401690
statPrefetchEntryFound: 2425282
statCompactorMatch: 8992374
statStreamTrackerLookup: 9956168
statRecord: 963794
statGetPointer: 2554478
statEnqueuePrefetch: 7371710
statPrefetchQueueIsFull: 1368
StreamBufferHitRate: 0.743428
Regions' size: 1502
next_region_correct: 558160
next_region_wrong: 404114
next_region_correct_prediction: 0.580043
statStreamBufferLookups: 716844096
statL1iLookups: 58973680
statCompactorLookups: 358422048
morteza: start

SHEET
mana_table_access_counter : 1341184
mana_table_multiple_access_counter : 2567094
hobp_table_access_counter : 26721770
sab_access_counter : 9826972
srq_access_counter : 9322916

morteza: end
CPU 0 L1D next line prefetcher final stats

DRAM Statistics
 CHANNEL 0
 RQ ROW_BUFFER_HIT:    1338417  ROW_BUFFER_MISS:    3110882
 DBUS_CONGESTED:    7704750
 WQ ROW_BUFFER_HIT:    1126029  ROW_BUFFER_MISS:    3061748  FULL:          0

 AVG_CONGESTED_CYCLE: 6

CPU 0 Branch Prediction Accuracy: 99.665% MPKI: 0.78342 Average ROB Occupancy at Mispredict: 99.6523

Branch types
NOT_BRANCH: 38305858 76.6117%
BRANCH_DIRECT_JUMP: 384281 0.768562%
BRANCH_INDIRECT: 71949 0.143898%
BRANCH_CONDITIONAL: 9879825 19.7597%
BRANCH_DIRECT_CALL: 650586 1.30117%
BRANCH_INDIRECT_CALL: 28456 0.056912%
BRANCH_RETURN: 679046 1.35809%
BRANCH_OTHER: 0 0%

