Initialize SIGNATURE TABLE
ST_SET: 1
ST_WAY: 256
ST_TAG_BIT: 16
ST_TAG_MASK: ffff

Initialize PATTERN TABLE
PT_SET: 512
PT_WAY: 4
SIG_DELTA_BIT: 7
C_SIG_BIT: 4
C_DELTA_BIT: 4

Initialize PREFETCH FILTER
FILTER_SET: 1024
MANA initialize 
tds: 2 tdm: 2
size MANA SINGLE: 15.5 KB
size MANA NULTIPLE: 0 KB
size HOBPT: 0.703125 KB
size SRQ: 0.14502 KB
size SABs: 0.290039 KB
size prefetch queue: 0.453125 KB
total: 17.0913 KB

*** ChampSim Multicore Out-of-Order Simulator ***

Warmup Instructions: 50000000
Simulation Instructions: 50000000
Number of CPUs: 1
LLC sets: 2048
LLC ways: 16
Off-chip DRAM Size: 4096 MB Channels: 1 Width: 64-bit Data Rate: 3200 MT/s

CPU 0 runs /home/mbaradaran/ChampSim/dpc3_traces/client_006.champsimtrace.xz
CPU 0 L1D next line prefetcher
Heartbeat CPU 0 instructions: 10000003 cycles: 4267535 heartbeat IPC: 2.34327 cumulative IPC: 2.34327 (Simulation time: 0 hr 1 min 44 sec) 
Heartbeat CPU 0 instructions: 20000000 cycles: 8308173 heartbeat IPC: 2.47486 cumulative IPC: 2.40727 (Simulation time: 0 hr 3 min 43 sec) 
Heartbeat CPU 0 instructions: 30000003 cycles: 11373116 heartbeat IPC: 3.2627 cumulative IPC: 2.6378 (Simulation time: 0 hr 5 min 16 sec) 
Heartbeat CPU 0 instructions: 40000000 cycles: 14719120 heartbeat IPC: 2.98864 cumulative IPC: 2.71755 (Simulation time: 0 hr 6 min 56 sec) 
Heartbeat CPU 0 instructions: 50000003 cycles: 18824163 heartbeat IPC: 2.43603 cumulative IPC: 2.65616 (Simulation time: 0 hr 8 min 49 sec) 

Warmup complete CPU 0 instructions: 50000003 cycles: 18824163 (Simulation time: 0 hr 8 min 49 sec) 

Heartbeat CPU 0 instructions: 60000001 cycles: 26720409 heartbeat IPC: 1.26642 cumulative IPC: 1.26642 (Simulation time: 0 hr 10 min 22 sec) 
Heartbeat CPU 0 instructions: 70000003 cycles: 36469252 heartbeat IPC: 1.02576 cumulative IPC: 1.13346 (Simulation time: 0 hr 12 min 4 sec) 
Heartbeat CPU 0 instructions: 80000002 cycles: 44870719 heartbeat IPC: 1.19027 cumulative IPC: 1.15178 (Simulation time: 0 hr 13 min 32 sec) 
Heartbeat CPU 0 instructions: 90000003 cycles: 52698223 heartbeat IPC: 1.27755 cumulative IPC: 1.18084 (Simulation time: 0 hr 14 min 53 sec) 
Heartbeat CPU 0 instructions: 100000001 cycles: 60930902 heartbeat IPC: 1.21467 cumulative IPC: 1.18746 (Simulation time: 0 hr 16 min 19 sec) 
Finished CPU 0 instructions: 50000002 cycles: 42106740 cumulative IPC: 1.18746 (Simulation time: 0 hr 16 min 19 sec) 

ChampSim completed all CPUs

Region of Interest Statistics

CPU 0 cumulative IPC: 1.18746 instructions: 50000002 cycles: 42106740

SHEET
IPC : 1.18746

L1D TOTAL     ACCESS:   16615398  HIT:   15888396  MISS:     727002
L1D LOAD      ACCESS:    6375487  HIT:    5969729  MISS:     405758
L1D RFO       ACCESS:    4334042  HIT:    4291413  MISS:      42629
L1D PREFETCH  ACCESS:    5905869  HIT:    5627254  MISS:     278615
L1D WRITEBACK ACCESS:          0  HIT:          0  MISS:          0
L1D PREFETCH  REQUESTED:    6416569  ISSUED:    6236068  USEFUL:     117534  USELESS:     160956
L1D AVERAGE MISS LATENCY: 81.5881 cycles
L1D

SHEET
L1D-total_access : 16615398
L1D-total_hit : 15888396
L1D-total_miss : 727002
L1D-load_access : 6375487
L1D-load_hit : 5969729
L1D-load_miss : 405758
L1D-rfo_access : 4334042
L1D-rfo_hit : 4291413
L1D-rfo_miss : 42629
L1D-prefetch_access : 5905869
L1D-prefetch_hit : 5627254
L1D-prefetch_miss : 278615
L1D-writeback_access : 0
L1D-writeback_hit : 0
L1D-writeback_miss : 0
L1D-prefetch_requested : 6416569
L1D-prefetch_issued : 6236068
L1D-prefetch_useful : 117534
L1D-prefetch_useless : 160956
L1D-Avg_miss_latency : 81.5881
L1D-Morteza_fill_l2_prefetches : 0

L1I TOTAL     ACCESS:   14028400  HIT:   13312084  MISS:     716316
L1I LOAD      ACCESS:    8444855  HIT:    8387326  MISS:      57529
L1I RFO       ACCESS:          0  HIT:          0  MISS:          0
L1I PREFETCH  ACCESS:    5583545  HIT:    4924758  MISS:     658787
L1I WRITEBACK ACCESS:          0  HIT:          0  MISS:          0
L1I PREFETCH  REQUESTED:    6055521  ISSUED:    5880605  USEFUL:     588865  USELESS:      70018
L1I AVERAGE MISS LATENCY: 24.5107 cycles
L1I

SHEET
L1I-total_access : 14028400
L1I-total_hit : 13312084
L1I-total_miss : 716316
L1I-load_access : 8444855
L1I-load_hit : 8387326
L1I-load_miss : 57529
L1I-rfo_access : 0
L1I-rfo_hit : 0
L1I-rfo_miss : 0
L1I-prefetch_access : 5583545
L1I-prefetch_hit : 4924758
L1I-prefetch_miss : 658787
L1I-writeback_access : 0
L1I-writeback_hit : 0
L1I-writeback_miss : 0
L1I-prefetch_requested : 6055521
L1I-prefetch_issued : 5880605
L1I-prefetch_useful : 588865
L1I-prefetch_useless : 70018
L1I-Avg_miss_latency : 24.5107
L1I-Morteza_fill_l2_prefetches : 0

L2C TOTAL     ACCESS:    2023169  HIT:    1476003  MISS:     547166
L2C LOAD      ACCESS:     381221  HIT:     141194  MISS:     240027
L2C RFO       ACCESS:      42363  HIT:      12443  MISS:      29920
L2C PREFETCH  ACCESS:    1423608  HIT:    1147149  MISS:     276459
L2C WRITEBACK ACCESS:     175977  HIT:     175217  MISS:        760
L2C PREFETCH  REQUESTED:    2422040  ISSUED:    2401032  USEFUL:      12249  USELESS:     264639
L2C AVERAGE MISS LATENCY: 116.024 cycles
L2C

SHEET
L2C-total_access : 2023169
L2C-total_hit : 1476003
L2C-total_miss : 547166
L2C-load_access : 381221
L2C-load_hit : 141194
L2C-load_miss : 240027
L2C-rfo_access : 42363
L2C-rfo_hit : 12443
L2C-rfo_miss : 29920
L2C-prefetch_access : 1423608
L2C-prefetch_hit : 1147149
L2C-prefetch_miss : 276459
L2C-writeback_access : 175977
L2C-writeback_hit : 175217
L2C-writeback_miss : 760
L2C-prefetch_requested : 2422040
L2C-prefetch_issued : 2401032
L2C-prefetch_useful : 12249
L2C-prefetch_useless : 264639
L2C-Avg_miss_latency : 116.024
L2C-Morteza_fill_l2_prefetches : 400363

LLC TOTAL     ACCESS:    1255556  HIT:     871503  MISS:     384053
LLC LOAD      ACCESS:     230193  HIT:     135484  MISS:      94709
LLC RFO       ACCESS:      29920  HIT:       5142  MISS:      24778
LLC PREFETCH  ACCESS:     861453  HIT:     597481  MISS:     263972
LLC WRITEBACK ACCESS:     133990  HIT:     133396  MISS:        594
LLC PREFETCH  REQUESTED:          0  ISSUED:          0  USEFUL:      42043  USELESS:     225447
LLC AVERAGE MISS LATENCY: 196.888 cycles
LLC

SHEET
LLC-total_access : 1255556
LLC-total_hit : 871503
LLC-total_miss : 384053
LLC-load_access : 230193
LLC-load_hit : 135484
LLC-load_miss : 94709
LLC-rfo_access : 29920
LLC-rfo_hit : 5142
LLC-rfo_miss : 24778
LLC-prefetch_access : 861453
LLC-prefetch_hit : 597481
LLC-prefetch_miss : 263972
LLC-writeback_access : 133990
LLC-writeback_hit : 133396
LLC-writeback_miss : 594
LLC-prefetch_requested : 0
LLC-prefetch_issued : 0
LLC-prefetch_useful : 42043
LLC-prefetch_useless : 225447
LLC-Avg_miss_latency : 196.888
LLC-Morteza_fill_l2_prefetches : 463845

Major fault: 0 Minor fault: 10527



Printing Logs
statHeadFound: 385899
statHeadMissing: 616661
statStreamBufferHit: 10810428
statPrefetchEntryFound: 3234559
statCompactorMatch: 10818098
statStreamTrackerLookup: 11812988
statRecord: 994890
statGetPointer: 1002560
statEnqueuePrefetch: 11298685
statPrefetchQueueIsFull: 24255
StreamBufferHitRate: 0.915131
Regions' size: 2705
next_region_correct: 762190
next_region_wrong: 229977
next_region_correct_prediction: 0.768207
statStreamBufferLookups: 850535136
statL1iLookups: 90389480
statCompactorLookups: 425267568
morteza: start

SHEET
mana_table_access_counter : 4253686
hobp_table_access_counter : 11248621
sab_access_counter : 14044987
srq_access_counter : 10907203

morteza: end
CPU 0 L1D next line prefetcher final stats

DRAM Statistics
 CHANNEL 0
 RQ ROW_BUFFER_HIT:     101055  ROW_BUFFER_MISS:     282389
 DBUS_CONGESTED:     225505
 WQ ROW_BUFFER_HIT:      21740  ROW_BUFFER_MISS:      92788  FULL:          0

 AVG_CONGESTED_CYCLE: 5

CPU 0 Branch Prediction Accuracy: 98.1683% MPKI: 3.13642 Average ROB Occupancy at Mispredict: 86.0261

Branch types
NOT_BRANCH: 41438057 82.8761%
BRANCH_DIRECT_JUMP: 413829 0.827658%
BRANCH_INDIRECT: 47058 0.094116%
BRANCH_CONDITIONAL: 6843835 13.6877%
BRANCH_DIRECT_CALL: 536885 1.07377%
BRANCH_INDIRECT_CALL: 90642 0.181284%
BRANCH_RETURN: 629329 1.25866%
BRANCH_OTHER: 0 0%

