Initialize SIGNATURE TABLE
ST_SET: 1
ST_WAY: 256
ST_TAG_BIT: 16
ST_TAG_MASK: ffff

Initialize PATTERN TABLE
PT_SET: 512
PT_WAY: 4
SIG_DELTA_BIT: 7
C_SIG_BIT: 4
C_DELTA_BIT: 4

Initialize PREFETCH FILTER
FILTER_SET: 1024
MANA initialize 
tds: 2 tdm: 2
size MANA SINGLE: 15.5 KB
size MANA NULTIPLE: 0 KB
size HOBPT: 0.703125 KB
size SRQ: 0.14502 KB
size SABs: 0.290039 KB
size prefetch queue: 0.453125 KB
total: 17.0913 KB

*** ChampSim Multicore Out-of-Order Simulator ***

Warmup Instructions: 50000000
Simulation Instructions: 50000000
Number of CPUs: 1
LLC sets: 2048
LLC ways: 16
Off-chip DRAM Size: 4096 MB Channels: 1 Width: 64-bit Data Rate: 3200 MT/s

CPU 0 runs /home/mbaradaran/ChampSim/dpc3_traces/server_026.champsimtrace.xz
CPU 0 L1D next line prefetcher
Heartbeat CPU 0 instructions: 10000000 cycles: 3536353 heartbeat IPC: 2.82777 cumulative IPC: 2.82777 (Simulation time: 0 hr 1 min 59 sec) 
Heartbeat CPU 0 instructions: 20000002 cycles: 7078276 heartbeat IPC: 2.82333 cumulative IPC: 2.82555 (Simulation time: 0 hr 4 min 1 sec) 
Heartbeat CPU 0 instructions: 30000000 cycles: 10609810 heartbeat IPC: 2.83163 cumulative IPC: 2.82757 (Simulation time: 0 hr 5 min 56 sec) 
Heartbeat CPU 0 instructions: 40000003 cycles: 14150332 heartbeat IPC: 2.82444 cumulative IPC: 2.82679 (Simulation time: 0 hr 7 min 56 sec) 
Heartbeat CPU 0 instructions: 50000000 cycles: 17684407 heartbeat IPC: 2.82959 cumulative IPC: 2.82735 (Simulation time: 0 hr 9 min 52 sec) 

Warmup complete CPU 0 instructions: 50000004 cycles: 17684408 (Simulation time: 0 hr 9 min 52 sec) 

*** Reached end of trace for Core: 0 Repeating trace: /home/mbaradaran/ChampSim/dpc3_traces/server_026.champsimtrace.xz
Heartbeat CPU 0 instructions: 60000000 cycles: 25045053 heartbeat IPC: 1.35858 cumulative IPC: 1.35858 (Simulation time: 0 hr 11 min 43 sec) 
Heartbeat CPU 0 instructions: 70000003 cycles: 32298751 heartbeat IPC: 1.37861 cumulative IPC: 1.36852 (Simulation time: 0 hr 13 min 33 sec) 
Heartbeat CPU 0 instructions: 80000002 cycles: 39652078 heartbeat IPC: 1.35993 cumulative IPC: 1.36564 (Simulation time: 0 hr 15 min 28 sec) 
Heartbeat CPU 0 instructions: 90000002 cycles: 46911172 heartbeat IPC: 1.37758 cumulative IPC: 1.36861 (Simulation time: 0 hr 17 min 16 sec) 
Heartbeat CPU 0 instructions: 100000000 cycles: 54246795 heartbeat IPC: 1.36321 cumulative IPC: 1.36753 (Simulation time: 0 hr 19 min 11 sec) 
Finished CPU 0 instructions: 50000000 cycles: 36562388 cumulative IPC: 1.36753 (Simulation time: 0 hr 19 min 11 sec) 

ChampSim completed all CPUs

Region of Interest Statistics

CPU 0 cumulative IPC: 1.36753 instructions: 50000000 cycles: 36562388

SHEET
IPC : 1.36753

L1D TOTAL     ACCESS:   20264708  HIT:   18619134  MISS:    1645574
L1D LOAD      ACCESS:    7172303  HIT:    6443208  MISS:     729095
L1D RFO       ACCESS:    6256141  HIT:    5968819  MISS:     287322
L1D PREFETCH  ACCESS:    6836264  HIT:    6207107  MISS:     629157
L1D WRITEBACK ACCESS:          0  HIT:          0  MISS:          0
L1D PREFETCH  REQUESTED:    7218819  ISSUED:    7081933  USEFUL:     151237  USELESS:     477930
L1D AVERAGE MISS LATENCY: 23.6169 cycles
L1D

SHEET
L1D-total_access : 20264708
L1D-total_hit : 18619134
L1D-total_miss : 1645574
L1D-load_access : 7172303
L1D-load_hit : 6443208
L1D-load_miss : 729095
L1D-rfo_access : 6256141
L1D-rfo_hit : 5968819
L1D-rfo_miss : 287322
L1D-prefetch_access : 6836264
L1D-prefetch_hit : 6207107
L1D-prefetch_miss : 629157
L1D-writeback_access : 0
L1D-writeback_hit : 0
L1D-writeback_miss : 0
L1D-prefetch_requested : 7218819
L1D-prefetch_issued : 7081933
L1D-prefetch_useful : 151237
L1D-prefetch_useless : 477930
L1D-Avg_miss_latency : 23.6169
L1D-Morteza_fill_l2_prefetches : 0

L1I TOTAL     ACCESS:   19291490  HIT:   14894501  MISS:    4396989
L1I LOAD      ACCESS:    9251478  HIT:    8431273  MISS:     820205
L1I RFO       ACCESS:          0  HIT:          0  MISS:          0
L1I PREFETCH  ACCESS:   10040012  HIT:    6463228  MISS:    3576784
L1I WRITEBACK ACCESS:          0  HIT:          0  MISS:          0
L1I PREFETCH  REQUESTED:   11101941  ISSUED:   10831608  USEFUL:    2053498  USELESS:    1523316
L1I AVERAGE MISS LATENCY: 16.6418 cycles
L1I

SHEET
L1I-total_access : 19291490
L1I-total_hit : 14894501
L1I-total_miss : 4396989
L1I-load_access : 9251478
L1I-load_hit : 8431273
L1I-load_miss : 820205
L1I-rfo_access : 0
L1I-rfo_hit : 0
L1I-rfo_miss : 0
L1I-prefetch_access : 10040012
L1I-prefetch_hit : 6463228
L1I-prefetch_miss : 3576784
L1I-writeback_access : 0
L1I-writeback_hit : 0
L1I-writeback_miss : 0
L1I-prefetch_requested : 11101941
L1I-prefetch_issued : 10831608
L1I-prefetch_useful : 2053498
L1I-prefetch_useless : 1523316
L1I-Avg_miss_latency : 16.6418
L1I-Morteza_fill_l2_prefetches : 0

L2C TOTAL     ACCESS:    8154665  HIT:    7418165  MISS:     736500
L2C LOAD      ACCESS:    1315107  HIT:    1103615  MISS:     211492
L2C RFO       ACCESS:     284923  HIT:     189005  MISS:      95918
L2C PREFETCH  ACCESS:    5993478  HIT:    5568874  MISS:     424604
L2C WRITEBACK ACCESS:     561157  HIT:     556671  MISS:       4486
L2C PREFETCH  REQUESTED:    7062663  ISSUED:    7045284  USEFUL:      32506  USELESS:     391021
L2C AVERAGE MISS LATENCY: 39.0023 cycles
L2C

SHEET
L2C-total_access : 8154665
L2C-total_hit : 7418165
L2C-total_miss : 736500
L2C-load_access : 1315107
L2C-load_hit : 1103615
L2C-load_miss : 211492
L2C-rfo_access : 284923
L2C-rfo_hit : 189005
L2C-rfo_miss : 95918
L2C-prefetch_access : 5993478
L2C-prefetch_hit : 5568874
L2C-prefetch_miss : 424604
L2C-writeback_access : 561157
L2C-writeback_hit : 556671
L2C-writeback_miss : 4486
L2C-prefetch_requested : 7062663
L2C-prefetch_issued : 7045284
L2C-prefetch_useful : 32506
L2C-prefetch_useless : 391021
L2C-Avg_miss_latency : 39.0023
L2C-Morteza_fill_l2_prefetches : 1596904

LLC TOTAL     ACCESS:    2803707  HIT:    2768980  MISS:      34727
LLC LOAD      ACCESS:     211338  HIT:     207714  MISS:       3624
LLC RFO       ACCESS:      95885  HIT:      81620  MISS:      14265
LLC PREFETCH  ACCESS:    2332900  HIT:    2316251  MISS:      16649
LLC WRITEBACK ACCESS:     163584  HIT:     163395  MISS:        189
LLC PREFETCH  REQUESTED:          0  ISSUED:          0  USEFUL:       1209  USELESS:      14790
LLC AVERAGE MISS LATENCY: 187.162 cycles
LLC

SHEET
LLC-total_access : 2803707
LLC-total_hit : 2768980
LLC-total_miss : 34727
LLC-load_access : 211338
LLC-load_hit : 207714
LLC-load_miss : 3624
LLC-rfo_access : 95885
LLC-rfo_hit : 81620
LLC-rfo_miss : 14265
LLC-prefetch_access : 2332900
LLC-prefetch_hit : 2316251
LLC-prefetch_miss : 16649
LLC-writeback_access : 163584
LLC-writeback_hit : 163395
LLC-writeback_miss : 189
LLC-prefetch_requested : 0
LLC-prefetch_issued : 0
LLC-prefetch_useful : 1209
LLC-prefetch_useless : 14790
LLC-Avg_miss_latency : 187.162
LLC-Morteza_fill_l2_prefetches : 1918135

Major fault: 0 Minor fault: 2165



Printing Logs
statHeadFound: 1042484
statHeadMissing: 1302962
statStreamBufferHit: 11884756
statPrefetchEntryFound: 7180228
statCompactorMatch: 11704307
statStreamTrackerLookup: 14230202
statRecord: 2525895
statGetPointer: 2345446
statEnqueuePrefetch: 21535413
statPrefetchQueueIsFull: 76073
StreamBufferHitRate: 0.835178
Regions' size: 2018
next_region_correct: 1711391
next_region_wrong: 812468
next_region_correct_prediction: 0.678085
statStreamBufferLookups: 1024574544
statL1iLookups: 172283304
statCompactorLookups: 512287272
morteza: start

SHEET
mana_table_access_counter : 9782178
hobp_table_access_counter : 26741664
sab_access_counter : 19064984
srq_access_counter : 15409722

morteza: end
CPU 0 L1D next line prefetcher final stats

DRAM Statistics
 CHANNEL 0
 RQ ROW_BUFFER_HIT:      12379  ROW_BUFFER_MISS:      22153
 DBUS_CONGESTED:      24440
 WQ ROW_BUFFER_HIT:       1564  ROW_BUFFER_MISS:      14500  FULL:          0

 AVG_CONGESTED_CYCLE: 6

CPU 0 Branch Prediction Accuracy: 99.822% MPKI: 0.32584 Average ROB Occupancy at Mispredict: 152.964

Branch types
NOT_BRANCH: 40848537 81.6971%
BRANCH_DIRECT_JUMP: 522045 1.04409%
BRANCH_INDIRECT: 204034 0.408068%
BRANCH_CONDITIONAL: 6212953 12.4259%
BRANCH_DIRECT_CALL: 932389 1.86478%
BRANCH_INDIRECT_CALL: 173764 0.347528%
BRANCH_RETURN: 1106150 2.2123%
BRANCH_OTHER: 0 0%

