Initialize SIGNATURE TABLE
ST_SET: 1
ST_WAY: 256
ST_TAG_BIT: 16
ST_TAG_MASK: ffff

Initialize PATTERN TABLE
PT_SET: 512
PT_WAY: 4
SIG_DELTA_BIT: 7
C_SIG_BIT: 4
C_DELTA_BIT: 4

Initialize PREFETCH FILTER
FILTER_SET: 1024
MANA initialize 
tds: 2 tdm: 2
size MANA SINGLE: 15.5 KB
size MANA NULTIPLE: 0 KB
size HOBPT: 0.703125 KB
size SRQ: 0.14502 KB
size SABs: 0.290039 KB
size prefetch queue: 0.453125 KB
total: 17.0913 KB

*** ChampSim Multicore Out-of-Order Simulator ***

Warmup Instructions: 50000000
Simulation Instructions: 50000000
Number of CPUs: 1
LLC sets: 2048
LLC ways: 16
Off-chip DRAM Size: 4096 MB Channels: 1 Width: 64-bit Data Rate: 3200 MT/s

CPU 0 runs /home/mbaradaran/ChampSim/dpc3_traces/server_034.champsimtrace.xz
CPU 0 L1D next line prefetcher
Heartbeat CPU 0 instructions: 10000000 cycles: 3332739 heartbeat IPC: 3.00054 cumulative IPC: 3.00054 (Simulation time: 0 hr 1 min 54 sec) 
Heartbeat CPU 0 instructions: 20000002 cycles: 6658419 heartbeat IPC: 3.0069 cumulative IPC: 3.00372 (Simulation time: 0 hr 3 min 48 sec) 
Heartbeat CPU 0 instructions: 30000003 cycles: 9992288 heartbeat IPC: 2.99952 cumulative IPC: 3.00232 (Simulation time: 0 hr 5 min 48 sec) 
Heartbeat CPU 0 instructions: 40000001 cycles: 13324409 heartbeat IPC: 3.00109 cumulative IPC: 3.00201 (Simulation time: 0 hr 7 min 39 sec) 
Heartbeat CPU 0 instructions: 50000000 cycles: 16655603 heartbeat IPC: 3.00193 cumulative IPC: 3.00199 (Simulation time: 0 hr 9 min 36 sec) 

Warmup complete CPU 0 instructions: 50000002 cycles: 16655604 (Simulation time: 0 hr 9 min 36 sec) 

Heartbeat CPU 0 instructions: 60000002 cycles: 22825338 heartbeat IPC: 1.62082 cumulative IPC: 1.62082 (Simulation time: 0 hr 11 min 21 sec) 
Heartbeat CPU 0 instructions: 70000003 cycles: 29333099 heartbeat IPC: 1.53663 cumulative IPC: 1.5776 (Simulation time: 0 hr 13 min 8 sec) 
Heartbeat CPU 0 instructions: 80000002 cycles: 35553845 heartbeat IPC: 1.60752 cumulative IPC: 1.58745 (Simulation time: 0 hr 14 min 56 sec) 
Heartbeat CPU 0 instructions: 90000002 cycles: 41769691 heartbeat IPC: 1.60879 cumulative IPC: 1.59273 (Simulation time: 0 hr 16 min 44 sec) 
Heartbeat CPU 0 instructions: 100000002 cycles: 47979666 heartbeat IPC: 1.61031 cumulative IPC: 1.59622 (Simulation time: 0 hr 18 min 36 sec) 
Finished CPU 0 instructions: 50000000 cycles: 31324062 cumulative IPC: 1.59622 (Simulation time: 0 hr 18 min 36 sec) 

ChampSim completed all CPUs

Region of Interest Statistics

CPU 0 cumulative IPC: 1.59622 instructions: 50000000 cycles: 31324062

SHEET
IPC : 1.59622

L1D TOTAL     ACCESS:   18517325  HIT:   17093364  MISS:    1423961
L1D LOAD      ACCESS:    6263500  HIT:    5608233  MISS:     655267
L1D RFO       ACCESS:    6167174  HIT:    6023758  MISS:     143416
L1D PREFETCH  ACCESS:    6086651  HIT:    5461373  MISS:     625278
L1D WRITEBACK ACCESS:          0  HIT:          0  MISS:          0
L1D PREFETCH  REQUESTED:    6299406  ISSUED:    6216637  USEFUL:     140843  USELESS:     484402
L1D AVERAGE MISS LATENCY: 17.7403 cycles
L1D

SHEET
L1D-total_access : 18517325
L1D-total_hit : 17093364
L1D-total_miss : 1423961
L1D-load_access : 6263500
L1D-load_hit : 5608233
L1D-load_miss : 655267
L1D-rfo_access : 6167174
L1D-rfo_hit : 6023758
L1D-rfo_miss : 143416
L1D-prefetch_access : 6086651
L1D-prefetch_hit : 5461373
L1D-prefetch_miss : 625278
L1D-writeback_access : 0
L1D-writeback_hit : 0
L1D-writeback_miss : 0
L1D-prefetch_requested : 6299406
L1D-prefetch_issued : 6216637
L1D-prefetch_useful : 140843
L1D-prefetch_useless : 484402
L1D-Avg_miss_latency : 17.7403
L1D-Morteza_fill_l2_prefetches : 0

L1I TOTAL     ACCESS:   19035111  HIT:   14628872  MISS:    4406239
L1I LOAD      ACCESS:    9509024  HIT:    8898093  MISS:     610931
L1I RFO       ACCESS:          0  HIT:          0  MISS:          0
L1I PREFETCH  ACCESS:    9526087  HIT:    5730779  MISS:    3795308
L1I WRITEBACK ACCESS:          0  HIT:          0  MISS:          0
L1I PREFETCH  REQUESTED:   10522165  ISSUED:   10327051  USEFUL:    2788197  USELESS:    1007122
L1I AVERAGE MISS LATENCY: 14.76 cycles
L1I

SHEET
L1I-total_access : 19035111
L1I-total_hit : 14628872
L1I-total_miss : 4406239
L1I-load_access : 9509024
L1I-load_hit : 8898093
L1I-load_miss : 610931
L1I-rfo_access : 0
L1I-rfo_hit : 0
L1I-rfo_miss : 0
L1I-prefetch_access : 9526087
L1I-prefetch_hit : 5730779
L1I-prefetch_miss : 3795308
L1I-writeback_access : 0
L1I-writeback_hit : 0
L1I-writeback_miss : 0
L1I-prefetch_requested : 10522165
L1I-prefetch_issued : 10327051
L1I-prefetch_useful : 2788197
L1I-prefetch_useless : 1007122
L1I-Avg_miss_latency : 14.76
L1I-Morteza_fill_l2_prefetches : 0

L2C TOTAL     ACCESS:    7748192  HIT:    7609294  MISS:     138898
L2C LOAD      ACCESS:    1114608  HIT:    1068928  MISS:      45680
L2C RFO       ACCESS:     141667  HIT:     133053  MISS:       8614
L2C PREFETCH  ACCESS:    6140987  HIT:    6057240  MISS:      83747
L2C WRITEBACK ACCESS:     350930  HIT:     350073  MISS:        857
L2C PREFETCH  REQUESTED:    6756241  ISSUED:    6744403  USEFUL:       3579  USELESS:      79146
L2C AVERAGE MISS LATENCY: 38.77 cycles
L2C

SHEET
L2C-total_access : 7748192
L2C-total_hit : 7609294
L2C-total_miss : 138898
L2C-load_access : 1114608
L2C-load_hit : 1068928
L2C-load_miss : 45680
L2C-rfo_access : 141667
L2C-rfo_hit : 133053
L2C-rfo_miss : 8614
L2C-prefetch_access : 6140987
L2C-prefetch_hit : 6057240
L2C-prefetch_miss : 83747
L2C-writeback_access : 350930
L2C-writeback_hit : 350073
L2C-writeback_miss : 857
L2C-prefetch_requested : 6756241
L2C-prefetch_issued : 6744403
L2C-prefetch_useful : 3579
L2C-prefetch_useless : 79146
L2C-Avg_miss_latency : 38.77
L2C-Morteza_fill_l2_prefetches : 1590303

LLC TOTAL     ACCESS:    1861786  HIT:    1849748  MISS:      12038
LLC LOAD      ACCESS:      45591  HIT:      42986  MISS:       2605
LLC RFO       ACCESS:       8613  HIT:       8431  MISS:        182
LLC PREFETCH  ACCESS:    1766753  HIT:    1757568  MISS:       9185
LLC WRITEBACK ACCESS:      40829  HIT:      40763  MISS:         66
LLC PREFETCH  REQUESTED:          0  ISSUED:          0  USEFUL:       3014  USELESS:       3943
LLC AVERAGE MISS LATENCY: 148.235 cycles
LLC

SHEET
LLC-total_access : 1861786
LLC-total_hit : 1849748
LLC-total_miss : 12038
LLC-load_access : 45591
LLC-load_hit : 42986
LLC-load_miss : 2605
LLC-rfo_access : 8613
LLC-rfo_hit : 8431
LLC-rfo_miss : 182
LLC-prefetch_access : 1766753
LLC-prefetch_hit : 1757568
LLC-prefetch_miss : 9185
LLC-writeback_access : 40829
LLC-writeback_hit : 40763
LLC-writeback_miss : 66
LLC-prefetch_requested : 0
LLC-prefetch_issued : 0
LLC-prefetch_useful : 3014
LLC-prefetch_useless : 3943
LLC-Avg_miss_latency : 148.235
LLC-Morteza_fill_l2_prefetches : 1680220

Major fault: 0 Minor fault: 1170



Printing Logs
statHeadFound: 800873
statHeadMissing: 484388
statStreamBufferHit: 13862678
statPrefetchEntryFound: 6796932
statCompactorMatch: 12090055
statStreamTrackerLookup: 15147939
statRecord: 3057884
statGetPointer: 1285261
statEnqueuePrefetch: 20491127
statPrefetchQueueIsFull: 16200
StreamBufferHitRate: 0.915153
Regions' size: 1322
next_region_correct: 2365705
next_region_wrong: 690839
next_region_correct_prediction: 0.77398
statStreamBufferLookups: 1090651608
statL1iLookups: 163929016
statCompactorLookups: 545325804
morteza: start

SHEET
mana_table_access_counter : 9870998
hobp_table_access_counter : 24185669
sab_access_counter : 20659610
srq_access_counter : 16700404

morteza: end
CPU 0 L1D next line prefetcher final stats

DRAM Statistics
 CHANNEL 0
 RQ ROW_BUFFER_HIT:       3747  ROW_BUFFER_MISS:       8220
 DBUS_CONGESTED:       5547
 WQ ROW_BUFFER_HIT:        954  ROW_BUFFER_MISS:       2503  FULL:          0

 AVG_CONGESTED_CYCLE: 5

CPU 0 Branch Prediction Accuracy: 99.926% MPKI: 0.14472 Average ROB Occupancy at Mispredict: 193.689

Branch types
NOT_BRANCH: 40220905 80.4418%
BRANCH_DIRECT_JUMP: 771319 1.54264%
BRANCH_INDIRECT: 108663 0.217326%
BRANCH_CONDITIONAL: 6375023 12.75%
BRANCH_DIRECT_CALL: 1049632 2.09926%
BRANCH_INDIRECT_CALL: 212280 0.42456%
BRANCH_RETURN: 1261922 2.52384%
BRANCH_OTHER: 0 0%

