Initialize SIGNATURE TABLE
ST_SET: 1
ST_WAY: 256
ST_TAG_BIT: 16
ST_TAG_MASK: ffff

Initialize PATTERN TABLE
PT_SET: 512
PT_WAY: 4
SIG_DELTA_BIT: 7
C_SIG_BIT: 4
C_DELTA_BIT: 4

Initialize PREFETCH FILTER
FILTER_SET: 1024
MANA initialize 
tds: 2 tdm: 2
size MANA SINGLE: 15.5 KB
size MANA NULTIPLE: 0 KB
size HOBPT: 0.703125 KB
size SRQ: 0.14502 KB
size SABs: 0.290039 KB
size prefetch queue: 0.453125 KB
total: 17.0913 KB

*** ChampSim Multicore Out-of-Order Simulator ***

Warmup Instructions: 50000000
Simulation Instructions: 50000000
Number of CPUs: 1
LLC sets: 2048
LLC ways: 16
Off-chip DRAM Size: 4096 MB Channels: 1 Width: 64-bit Data Rate: 3200 MT/s

CPU 0 runs /home/mbaradaran/ChampSim/dpc3_traces/server_032.champsimtrace.xz
CPU 0 L1D next line prefetcher
Heartbeat CPU 0 instructions: 10000002 cycles: 3534956 heartbeat IPC: 2.82889 cumulative IPC: 2.82889 (Simulation time: 0 hr 2 min 3 sec) 
Heartbeat CPU 0 instructions: 20000003 cycles: 7071425 heartbeat IPC: 2.82768 cumulative IPC: 2.82828 (Simulation time: 0 hr 4 min 6 sec) 
Heartbeat CPU 0 instructions: 30000000 cycles: 10607046 heartbeat IPC: 2.82836 cumulative IPC: 2.82831 (Simulation time: 0 hr 6 min 2 sec) 
Heartbeat CPU 0 instructions: 40000003 cycles: 14144202 heartbeat IPC: 2.82713 cumulative IPC: 2.82801 (Simulation time: 0 hr 8 min 4 sec) 
Heartbeat CPU 0 instructions: 50000000 cycles: 17679662 heartbeat IPC: 2.82849 cumulative IPC: 2.82811 (Simulation time: 0 hr 10 min 7 sec) 

Warmup complete CPU 0 instructions: 50000004 cycles: 17679663 (Simulation time: 0 hr 10 min 7 sec) 

Heartbeat CPU 0 instructions: 60000002 cycles: 24765232 heartbeat IPC: 1.41132 cumulative IPC: 1.41132 (Simulation time: 0 hr 12 min 5 sec) 
Heartbeat CPU 0 instructions: 70000000 cycles: 31847098 heartbeat IPC: 1.41206 cumulative IPC: 1.41169 (Simulation time: 0 hr 14 min 4 sec) 
*** Reached end of trace for Core: 0 Repeating trace: /home/mbaradaran/ChampSim/dpc3_traces/server_032.champsimtrace.xz
Heartbeat CPU 0 instructions: 80000003 cycles: 38928474 heartbeat IPC: 1.41216 cumulative IPC: 1.41184 (Simulation time: 0 hr 16 min 0 sec) 
Heartbeat CPU 0 instructions: 90000002 cycles: 45979917 heartbeat IPC: 1.41815 cumulative IPC: 1.41341 (Simulation time: 0 hr 17 min 56 sec) 
Heartbeat CPU 0 instructions: 100000001 cycles: 53038569 heartbeat IPC: 1.4167 cumulative IPC: 1.41407 (Simulation time: 0 hr 19 min 52 sec) 
Finished CPU 0 instructions: 50000002 cycles: 35358910 cumulative IPC: 1.41407 (Simulation time: 0 hr 19 min 52 sec) 

ChampSim completed all CPUs

Region of Interest Statistics

CPU 0 cumulative IPC: 1.41407 instructions: 50000002 cycles: 35358910

SHEET
IPC : 1.41407

L1D TOTAL     ACCESS:   20280881  HIT:   18451722  MISS:    1829159
L1D LOAD      ACCESS:    6997430  HIT:    6202832  MISS:     794598
L1D RFO       ACCESS:    6563394  HIT:    6269055  MISS:     294339
L1D PREFETCH  ACCESS:    6720057  HIT:    5979835  MISS:     740222
L1D WRITEBACK ACCESS:          0  HIT:          0  MISS:          0
L1D PREFETCH  REQUESTED:    7046484  ISSUED:    6916666  USEFUL:     170095  USELESS:     570127
L1D AVERAGE MISS LATENCY: 19.0675 cycles
L1D

SHEET
L1D-total_access : 20280881
L1D-total_hit : 18451722
L1D-total_miss : 1829159
L1D-load_access : 6997430
L1D-load_hit : 6202832
L1D-load_miss : 794598
L1D-rfo_access : 6563394
L1D-rfo_hit : 6269055
L1D-rfo_miss : 294339
L1D-prefetch_access : 6720057
L1D-prefetch_hit : 5979835
L1D-prefetch_miss : 740222
L1D-writeback_access : 0
L1D-writeback_hit : 0
L1D-writeback_miss : 0
L1D-prefetch_requested : 7046484
L1D-prefetch_issued : 6916666
L1D-prefetch_useful : 170095
L1D-prefetch_useless : 570127
L1D-Avg_miss_latency : 19.0675
L1D-Morteza_fill_l2_prefetches : 0

L1I TOTAL     ACCESS:   19825267  HIT:   15057460  MISS:    4767807
L1I LOAD      ACCESS:    9425115  HIT:    8544813  MISS:     880302
L1I RFO       ACCESS:          0  HIT:          0  MISS:          0
L1I PREFETCH  ACCESS:   10400152  HIT:    6512647  MISS:    3887505
L1I WRITEBACK ACCESS:          0  HIT:          0  MISS:          0
L1I PREFETCH  REQUESTED:   11562214  ISSUED:   11257659  USEFUL:    2416141  USELESS:    1471362
L1I AVERAGE MISS LATENCY: 15.9908 cycles
L1I

SHEET
L1I-total_access : 19825267
L1I-total_hit : 15057460
L1I-total_miss : 4767807
L1I-load_access : 9425115
L1I-load_hit : 8544813
L1I-load_miss : 880302
L1I-rfo_access : 0
L1I-rfo_hit : 0
L1I-rfo_miss : 0
L1I-prefetch_access : 10400152
L1I-prefetch_hit : 6512647
L1I-prefetch_miss : 3887505
L1I-writeback_access : 0
L1I-writeback_hit : 0
L1I-writeback_miss : 0
L1I-prefetch_requested : 11562214
L1I-prefetch_issued : 11257659
L1I-prefetch_useful : 2416141
L1I-prefetch_useless : 1471362
L1I-Avg_miss_latency : 15.9908
L1I-Morteza_fill_l2_prefetches : 0

L2C TOTAL     ACCESS:    9132213  HIT:    8597627  MISS:     534586
L2C LOAD      ACCESS:    1447882  HIT:    1313741  MISS:     134141
L2C RFO       ACCESS:     292510  HIT:     245016  MISS:      47494
L2C PREFETCH  ACCESS:    6755563  HIT:    6417233  MISS:     338330
L2C WRITEBACK ACCESS:     636258  HIT:     621637  MISS:      14621
L2C PREFETCH  REQUESTED:    8624288  ISSUED:    8549913  USEFUL:      11927  USELESS:     326214
L2C AVERAGE MISS LATENCY: 32.3049 cycles
L2C

SHEET
L2C-total_access : 9132213
L2C-total_hit : 8597627
L2C-total_miss : 534586
L2C-load_access : 1447882
L2C-load_hit : 1313741
L2C-load_miss : 134141
L2C-rfo_access : 292510
L2C-rfo_hit : 245016
L2C-rfo_miss : 47494
L2C-prefetch_access : 6755563
L2C-prefetch_hit : 6417233
L2C-prefetch_miss : 338330
L2C-writeback_access : 636258
L2C-writeback_hit : 621637
L2C-writeback_miss : 14621
L2C-prefetch_requested : 8624288
L2C-prefetch_issued : 8549913
L2C-prefetch_useful : 11927
L2C-prefetch_useless : 326214
L2C-Avg_miss_latency : 32.3049
L2C-Morteza_fill_l2_prefetches : 1933845

LLC TOTAL     ACCESS:    3115113  HIT:    3109788  MISS:       5325
LLC LOAD      ACCESS:     134094  HIT:     133682  MISS:        412
LLC RFO       ACCESS:      47494  HIT:      47494  MISS:          0
LLC PREFETCH  ACCESS:    2841867  HIT:    2836966  MISS:       4901
LLC WRITEBACK ACCESS:      91658  HIT:      91646  MISS:         12
LLC PREFETCH  REQUESTED:          0  ISSUED:          0  USEFUL:        385  USELESS:       1262
LLC AVERAGE MISS LATENCY: 146.78 cycles
LLC

SHEET
LLC-total_access : 3115113
LLC-total_hit : 3109788
LLC-total_miss : 5325
LLC-load_access : 134094
LLC-load_hit : 133682
LLC-load_miss : 412
LLC-rfo_access : 47494
LLC-rfo_hit : 47494
LLC-rfo_miss : 0
LLC-prefetch_access : 2841867
LLC-prefetch_hit : 2836966
LLC-prefetch_miss : 4901
LLC-writeback_access : 91658
LLC-writeback_hit : 91646
LLC-writeback_miss : 12
LLC-prefetch_requested : 0
LLC-prefetch_issued : 0
LLC-prefetch_useful : 385
LLC-prefetch_useless : 1262
LLC-Avg_miss_latency : 146.78
LLC-Morteza_fill_l2_prefetches : 2509700

Major fault: 0 Minor fault: 1178



Printing Logs
statHeadFound: 1081217
statHeadMissing: 1120399
statStreamBufferHit: 12308561
statPrefetchEntryFound: 7646683
statCompactorMatch: 11571186
statStreamTrackerLookup: 14510177
statRecord: 2938991
statGetPointer: 2201616
statEnqueuePrefetch: 22498052
statPrefetchQueueIsFull: 88247
StreamBufferHitRate: 0.848271
Regions' size: 1333
next_region_correct: 2099890
next_region_wrong: 837750
next_region_correct_prediction: 0.714822
statStreamBufferLookups: 1044732744
statL1iLookups: 179984416
statCompactorLookups: 522366372
morteza: start

SHEET
mana_table_access_counter : 10673903
hobp_table_access_counter : 28297351
sab_access_counter : 19955244
srq_access_counter : 16078885

morteza: end
CPU 0 L1D next line prefetcher final stats

DRAM Statistics
 CHANNEL 0
 RQ ROW_BUFFER_HIT:       1484  ROW_BUFFER_MISS:       3829
 DBUS_CONGESTED:        800
 WQ ROW_BUFFER_HIT:          0  ROW_BUFFER_MISS:          6  FULL:          0

 AVG_CONGESTED_CYCLE: 5

CPU 0 Branch Prediction Accuracy: 99.8762% MPKI: 0.2296 Average ROB Occupancy at Mispredict: 155.219

Branch types
NOT_BRANCH: 40725938 81.4519%
BRANCH_DIRECT_JUMP: 508368 1.01674%
BRANCH_INDIRECT: 180051 0.360102%
BRANCH_CONDITIONAL: 5999627 11.9993%
BRANCH_DIRECT_CALL: 1086730 2.17346%
BRANCH_INDIRECT_CALL: 206109 0.412218%
BRANCH_RETURN: 1292826 2.58565%
BRANCH_OTHER: 0 0%

