Initialize SIGNATURE TABLE
ST_SET: 1
ST_WAY: 256
ST_TAG_BIT: 16
ST_TAG_MASK: ffff

Initialize PATTERN TABLE
PT_SET: 512
PT_WAY: 4
SIG_DELTA_BIT: 7
C_SIG_BIT: 4
C_DELTA_BIT: 4

Initialize PREFETCH FILTER
FILTER_SET: 1024
MANA initialize 
tds: 2 tdm: 2
size MANA SINGLE: 15.5 KB
size MANA NULTIPLE: 0 KB
size HOBPT: 0.703125 KB
size SRQ: 0.14502 KB
size SABs: 0.290039 KB
size prefetch queue: 0.453125 KB
total: 17.0913 KB

*** ChampSim Multicore Out-of-Order Simulator ***

Warmup Instructions: 50000000
Simulation Instructions: 50000000
Number of CPUs: 1
LLC sets: 2048
LLC ways: 16
Off-chip DRAM Size: 4096 MB Channels: 1 Width: 64-bit Data Rate: 3200 MT/s

CPU 0 runs /home/mbaradaran/ChampSim/dpc3_traces/server_025.champsimtrace.xz
CPU 0 L1D next line prefetcher
Heartbeat CPU 0 instructions: 10000003 cycles: 3537222 heartbeat IPC: 2.82708 cumulative IPC: 2.82708 (Simulation time: 0 hr 1 min 51 sec) 
Heartbeat CPU 0 instructions: 20000000 cycles: 7081907 heartbeat IPC: 2.82112 cumulative IPC: 2.8241 (Simulation time: 0 hr 3 min 49 sec) 
Heartbeat CPU 0 instructions: 30000001 cycles: 10618699 heartbeat IPC: 2.82742 cumulative IPC: 2.8252 (Simulation time: 0 hr 5 min 51 sec) 
Heartbeat CPU 0 instructions: 40000003 cycles: 14161625 heartbeat IPC: 2.82253 cumulative IPC: 2.82453 (Simulation time: 0 hr 7 min 50 sec) 
Heartbeat CPU 0 instructions: 50000001 cycles: 17702810 heartbeat IPC: 2.82391 cumulative IPC: 2.82441 (Simulation time: 0 hr 9 min 46 sec) 

Warmup complete CPU 0 instructions: 50000001 cycles: 17702810 (Simulation time: 0 hr 9 min 46 sec) 

Heartbeat CPU 0 instructions: 60000002 cycles: 24951970 heartbeat IPC: 1.37947 cumulative IPC: 1.37947 (Simulation time: 0 hr 11 min 36 sec) 
Heartbeat CPU 0 instructions: 70000000 cycles: 32312005 heartbeat IPC: 1.35869 cumulative IPC: 1.369 (Simulation time: 0 hr 13 min 30 sec) 
Heartbeat CPU 0 instructions: 80000002 cycles: 39565407 heartbeat IPC: 1.37866 cumulative IPC: 1.37221 (Simulation time: 0 hr 15 min 19 sec) 
Heartbeat CPU 0 instructions: 90000001 cycles: 46378651 heartbeat IPC: 1.46773 cumulative IPC: 1.3949 (Simulation time: 0 hr 17 min 7 sec) 
Heartbeat CPU 0 instructions: 100000003 cycles: 52851386 heartbeat IPC: 1.54494 cumulative IPC: 1.42253 (Simulation time: 0 hr 19 min 5 sec) 
Finished CPU 0 instructions: 50000002 cycles: 35148576 cumulative IPC: 1.42253 (Simulation time: 0 hr 19 min 5 sec) 

ChampSim completed all CPUs

Region of Interest Statistics

CPU 0 cumulative IPC: 1.42253 instructions: 50000002 cycles: 35148576

SHEET
IPC : 1.42253

L1D TOTAL     ACCESS:   20412940  HIT:   18986900  MISS:    1426040
L1D LOAD      ACCESS:    7167306  HIT:    6550197  MISS:     617109
L1D RFO       ACCESS:    6387060  HIT:    6138408  MISS:     248652
L1D PREFETCH  ACCESS:    6858574  HIT:    6298295  MISS:     560279
L1D WRITEBACK ACCESS:          0  HIT:          0  MISS:          0
L1D PREFETCH  REQUESTED:    7207953  ISSUED:    7038544  USEFUL:     132794  USELESS:     427479
L1D AVERAGE MISS LATENCY: 22.9281 cycles
L1D

SHEET
L1D-total_access : 20412940
L1D-total_hit : 18986900
L1D-total_miss : 1426040
L1D-load_access : 7167306
L1D-load_hit : 6550197
L1D-load_miss : 617109
L1D-rfo_access : 6387060
L1D-rfo_hit : 6138408
L1D-rfo_miss : 248652
L1D-prefetch_access : 6858574
L1D-prefetch_hit : 6298295
L1D-prefetch_miss : 560279
L1D-writeback_access : 0
L1D-writeback_hit : 0
L1D-writeback_miss : 0
L1D-prefetch_requested : 7207953
L1D-prefetch_issued : 7038544
L1D-prefetch_useful : 132794
L1D-prefetch_useless : 427479
L1D-Avg_miss_latency : 22.9281
L1D-Morteza_fill_l2_prefetches : 0

L1I TOTAL     ACCESS:   19220522  HIT:   15358638  MISS:    3861884
L1I LOAD      ACCESS:    9288353  HIT:    8556326  MISS:     732027
L1I RFO       ACCESS:          0  HIT:          0  MISS:          0
L1I PREFETCH  ACCESS:    9932169  HIT:    6802312  MISS:    3129857
L1I WRITEBACK ACCESS:          0  HIT:          0  MISS:          0
L1I PREFETCH  REQUESTED:   10890322  ISSUED:   10660619  USEFUL:    1812615  USELESS:    1317276
L1I AVERAGE MISS LATENCY: 16.6557 cycles
L1I

SHEET
L1I-total_access : 19220522
L1I-total_hit : 15358638
L1I-total_miss : 3861884
L1I-load_access : 9288353
L1I-load_hit : 8556326
L1I-load_miss : 732027
L1I-rfo_access : 0
L1I-rfo_hit : 0
L1I-rfo_miss : 0
L1I-prefetch_access : 9932169
L1I-prefetch_hit : 6802312
L1I-prefetch_miss : 3129857
L1I-writeback_access : 0
L1I-writeback_hit : 0
L1I-writeback_miss : 0
L1I-prefetch_requested : 10890322
L1I-prefetch_issued : 10660619
L1I-prefetch_useful : 1812615
L1I-prefetch_useless : 1317276
L1I-Avg_miss_latency : 16.6557
L1I-Morteza_fill_l2_prefetches : 0

L2C TOTAL     ACCESS:    7150666  HIT:    6533659  MISS:     617007
L2C LOAD      ACCESS:    1152489  HIT:     986622  MISS:     165867
L2C RFO       ACCESS:     246737  HIT:     169342  MISS:      77395
L2C PREFETCH  ACCESS:    5254747  HIT:    4886053  MISS:     368694
L2C WRITEBACK ACCESS:     496693  HIT:     491642  MISS:       5051
L2C PREFETCH  REQUESTED:    6090802  ISSUED:    6076853  USEFUL:      26284  USELESS:     341429
L2C AVERAGE MISS LATENCY: 38.7212 cycles
L2C

SHEET
L2C-total_access : 7150666
L2C-total_hit : 6533659
L2C-total_miss : 617007
L2C-load_access : 1152489
L2C-load_hit : 986622
L2C-load_miss : 165867
L2C-rfo_access : 246737
L2C-rfo_hit : 169342
L2C-rfo_miss : 77395
L2C-prefetch_access : 5254747
L2C-prefetch_hit : 4886053
L2C-prefetch_miss : 368694
L2C-writeback_access : 496693
L2C-writeback_hit : 491642
L2C-writeback_miss : 5051
L2C-prefetch_requested : 6090802
L2C-prefetch_issued : 6076853
L2C-prefetch_useful : 26284
L2C-prefetch_useless : 341429
L2C-Avg_miss_latency : 38.7212
L2C-Morteza_fill_l2_prefetches : 1403553

LLC TOTAL     ACCESS:    2399054  HIT:    2370026  MISS:      29028
LLC LOAD      ACCESS:     165791  HIT:     162411  MISS:       3380
LLC RFO       ACCESS:      77390  HIT:      66687  MISS:      10703
LLC PREFETCH  ACCESS:    2028919  HIT:    2014192  MISS:      14727
LLC WRITEBACK ACCESS:     126954  HIT:     126736  MISS:        218
LLC PREFETCH  REQUESTED:          0  ISSUED:          0  USEFUL:       1325  USELESS:      12055
LLC AVERAGE MISS LATENCY: 182.879 cycles
LLC

SHEET
LLC-total_access : 2399054
LLC-total_hit : 2370026
LLC-total_miss : 29028
LLC-load_access : 165791
LLC-load_hit : 162411
LLC-load_miss : 3380
LLC-rfo_access : 77390
LLC-rfo_hit : 66687
LLC-rfo_miss : 10703
LLC-prefetch_access : 2028919
LLC-prefetch_hit : 2014192
LLC-prefetch_miss : 14727
LLC-writeback_access : 126954
LLC-writeback_hit : 126736
LLC-writeback_miss : 218
LLC-prefetch_requested : 0
LLC-prefetch_issued : 0
LLC-prefetch_useful : 1325
LLC-prefetch_useless : 12055
LLC-Avg_miss_latency : 182.879
LLC-Morteza_fill_l2_prefetches : 1665438

Major fault: 0 Minor fault: 2457



Printing Logs
statHeadFound: 1004560
statHeadMissing: 1156676
statStreamBufferHit: 12244438
statPrefetchEntryFound: 7221306
statCompactorMatch: 11760782
statStreamTrackerLookup: 14405674
statRecord: 2644892
statGetPointer: 2161236
statEnqueuePrefetch: 21485388
statPrefetchQueueIsFull: 72641
StreamBufferHitRate: 0.849973
Regions' size: 2177
next_region_correct: 1871011
next_region_wrong: 771686
next_region_correct_prediction: 0.707993
statStreamBufferLookups: 1037208528
statL1iLookups: 171883104
statCompactorLookups: 518604264
morteza: start

SHEET
mana_table_access_counter : 9938821
hobp_table_access_counter : 26518459
sab_access_counter : 19465744
srq_access_counter : 15660592

morteza: end
CPU 0 L1D next line prefetcher final stats

DRAM Statistics
 CHANNEL 0
 RQ ROW_BUFFER_HIT:       9197  ROW_BUFFER_MISS:      19605
 DBUS_CONGESTED:      20119
 WQ ROW_BUFFER_HIT:       1321  ROW_BUFFER_MISS:      12077  FULL:          0

 AVG_CONGESTED_CYCLE: 6

CPU 0 Branch Prediction Accuracy: 99.8142% MPKI: 0.34676 Average ROB Occupancy at Mispredict: 160.141

Branch types
NOT_BRANCH: 40668773 81.3375%
BRANCH_DIRECT_JUMP: 531700 1.0634%
BRANCH_INDIRECT: 199025 0.39805%
BRANCH_CONDITIONAL: 6211474 12.4229%
BRANCH_DIRECT_CALL: 1010909 2.02182%
BRANCH_INDIRECT_CALL: 183501 0.367002%
BRANCH_RETURN: 1194412 2.38882%
BRANCH_OTHER: 0 0%

