Initialize SIGNATURE TABLE
ST_SET: 1
ST_WAY: 256
ST_TAG_BIT: 16
ST_TAG_MASK: ffff

Initialize PATTERN TABLE
PT_SET: 512
PT_WAY: 4
SIG_DELTA_BIT: 7
C_SIG_BIT: 4
C_DELTA_BIT: 4

Initialize PREFETCH FILTER
FILTER_SET: 1024
MANA initialize 
tds: 2 tdm: 2
size MANA SINGLE: 15.5 KB
size MANA NULTIPLE: 0 KB
size HOBPT: 0.703125 KB
size SRQ: 0.14502 KB
size SABs: 0.290039 KB
size prefetch queue: 0.453125 KB
total: 17.0913 KB

*** ChampSim Multicore Out-of-Order Simulator ***

Warmup Instructions: 50000000
Simulation Instructions: 50000000
Number of CPUs: 1
LLC sets: 2048
LLC ways: 16
Off-chip DRAM Size: 4096 MB Channels: 1 Width: 64-bit Data Rate: 3200 MT/s

CPU 0 runs /home/mbaradaran/ChampSim/dpc3_traces/server_012.champsimtrace.xz
CPU 0 L1D next line prefetcher
Heartbeat CPU 0 instructions: 10000002 cycles: 3200459 heartbeat IPC: 3.12455 cumulative IPC: 3.12455 (Simulation time: 0 hr 1 min 40 sec) 
Heartbeat CPU 0 instructions: 20000002 cycles: 6403857 heartbeat IPC: 3.12169 cumulative IPC: 3.12312 (Simulation time: 0 hr 3 min 22 sec) 
Heartbeat CPU 0 instructions: 30000001 cycles: 9607453 heartbeat IPC: 3.12149 cumulative IPC: 3.12258 (Simulation time: 0 hr 5 min 2 sec) 
Heartbeat CPU 0 instructions: 40000000 cycles: 12818009 heartbeat IPC: 3.11472 cumulative IPC: 3.12061 (Simulation time: 0 hr 6 min 49 sec) 
Heartbeat CPU 0 instructions: 50000003 cycles: 16021271 heartbeat IPC: 3.12182 cumulative IPC: 3.12085 (Simulation time: 0 hr 8 min 36 sec) 

Warmup complete CPU 0 instructions: 50000003 cycles: 16021271 (Simulation time: 0 hr 8 min 36 sec) 

Heartbeat CPU 0 instructions: 60000002 cycles: 23587794 heartbeat IPC: 1.32161 cumulative IPC: 1.32161 (Simulation time: 0 hr 10 min 8 sec) 
Heartbeat CPU 0 instructions: 70000000 cycles: 31228699 heartbeat IPC: 1.30875 cumulative IPC: 1.31515 (Simulation time: 0 hr 11 min 38 sec) 
Heartbeat CPU 0 instructions: 80000003 cycles: 38911805 heartbeat IPC: 1.30156 cumulative IPC: 1.31059 (Simulation time: 0 hr 13 min 14 sec) 
Heartbeat CPU 0 instructions: 90000001 cycles: 46810485 heartbeat IPC: 1.26603 cumulative IPC: 1.29916 (Simulation time: 0 hr 14 min 51 sec) 
Heartbeat CPU 0 instructions: 100000002 cycles: 54603871 heartbeat IPC: 1.28314 cumulative IPC: 1.29592 (Simulation time: 0 hr 16 min 26 sec) 
Finished CPU 0 instructions: 50000001 cycles: 38582601 cumulative IPC: 1.29592 (Simulation time: 0 hr 16 min 26 sec) 

ChampSim completed all CPUs

Region of Interest Statistics

CPU 0 cumulative IPC: 1.29592 instructions: 50000001 cycles: 38582601

SHEET
IPC : 1.29592

L1D TOTAL     ACCESS:   17545451  HIT:   16502397  MISS:    1043054
L1D LOAD      ACCESS:    6407884  HIT:    5922596  MISS:     485288
L1D RFO       ACCESS:    4969906  HIT:    4887975  MISS:      81931
L1D PREFETCH  ACCESS:    6167661  HIT:    5691826  MISS:     475835
L1D WRITEBACK ACCESS:          0  HIT:          0  MISS:          0
L1D PREFETCH  REQUESTED:    6443669  ISSUED:    6342880  USEFUL:     135067  USELESS:     340789
L1D AVERAGE MISS LATENCY: 40.3753 cycles
L1D

SHEET
L1D-total_access : 17545451
L1D-total_hit : 16502397
L1D-total_miss : 1043054
L1D-load_access : 6407884
L1D-load_hit : 5922596
L1D-load_miss : 485288
L1D-rfo_access : 4969906
L1D-rfo_hit : 4887975
L1D-rfo_miss : 81931
L1D-prefetch_access : 6167661
L1D-prefetch_hit : 5691826
L1D-prefetch_miss : 475835
L1D-writeback_access : 0
L1D-writeback_hit : 0
L1D-writeback_miss : 0
L1D-prefetch_requested : 6443669
L1D-prefetch_issued : 6342880
L1D-prefetch_useful : 135067
L1D-prefetch_useless : 340789
L1D-Avg_miss_latency : 40.3753
L1D-Morteza_fill_l2_prefetches : 0

L1I TOTAL     ACCESS:   15768983  HIT:   13557978  MISS:    2211005
L1I LOAD      ACCESS:    8661304  HIT:    8291975  MISS:     369329
L1I RFO       ACCESS:          0  HIT:          0  MISS:          0
L1I PREFETCH  ACCESS:    7107679  HIT:    5266003  MISS:    1841676
L1I WRITEBACK ACCESS:          0  HIT:          0  MISS:          0
L1I PREFETCH  REQUESTED:    7943930  ISSUED:    7448962  USEFUL:    1017242  USELESS:     824511
L1I AVERAGE MISS LATENCY: 27.6925 cycles
L1I

SHEET
L1I-total_access : 15768983
L1I-total_hit : 13557978
L1I-total_miss : 2211005
L1I-load_access : 8661304
L1I-load_hit : 8291975
L1I-load_miss : 369329
L1I-rfo_access : 0
L1I-rfo_hit : 0
L1I-rfo_miss : 0
L1I-prefetch_access : 7107679
L1I-prefetch_hit : 5266003
L1I-prefetch_miss : 1841676
L1I-writeback_access : 0
L1I-writeback_hit : 0
L1I-writeback_miss : 0
L1I-prefetch_requested : 7943930
L1I-prefetch_issued : 7448962
L1I-prefetch_useful : 1017242
L1I-prefetch_useless : 824511
L1I-Avg_miss_latency : 27.6925
L1I-Morteza_fill_l2_prefetches : 0

L2C TOTAL     ACCESS:    4134431  HIT:    2832872  MISS:    1301559
L2C LOAD      ACCESS:     747149  HIT:     359070  MISS:     388079
L2C RFO       ACCESS:      80744  HIT:      30152  MISS:      50592
L2C PREFETCH  ACCESS:    3031044  HIT:    2170408  MISS:     860636
L2C WRITEBACK ACCESS:     275494  HIT:     273242  MISS:       2252
L2C PREFETCH  REQUESTED:    3955771  ISSUED:    3949708  USEFUL:      57394  USELESS:     802436
L2C AVERAGE MISS LATENCY: 44.3951 cycles
L2C

SHEET
L2C-total_access : 4134431
L2C-total_hit : 2832872
L2C-total_miss : 1301559
L2C-load_access : 747149
L2C-load_hit : 359070
L2C-load_miss : 388079
L2C-rfo_access : 80744
L2C-rfo_hit : 30152
L2C-rfo_miss : 50592
L2C-prefetch_access : 3031044
L2C-prefetch_hit : 2170408
L2C-prefetch_miss : 860636
L2C-writeback_access : 275494
L2C-writeback_hit : 273242
L2C-writeback_miss : 2252
L2C-prefetch_requested : 3955771
L2C-prefetch_issued : 3949708
L2C-prefetch_useful : 57394
L2C-prefetch_useless : 802436
L2C-Avg_miss_latency : 44.3951
L2C-Morteza_fill_l2_prefetches : 614117

LLC TOTAL     ACCESS:    2592591  HIT:    2451379  MISS:     141212
LLC LOAD      ACCESS:     386932  HIT:     363988  MISS:      22944
LLC RFO       ACCESS:      50587  HIT:      40682  MISS:       9905
LLC PREFETCH  ACCESS:    1985188  HIT:    1877079  MISS:     108109
LLC WRITEBACK ACCESS:     169884  HIT:     169630  MISS:        254
LLC PREFETCH  REQUESTED:          0  ISSUED:          0  USEFUL:      12815  USELESS:      94645
LLC AVERAGE MISS LATENCY: 169.669 cycles
LLC

SHEET
LLC-total_access : 2592591
LLC-total_hit : 2451379
LLC-total_miss : 141212
LLC-load_access : 386932
LLC-load_hit : 363988
LLC-load_miss : 22944
LLC-rfo_access : 50587
LLC-rfo_hit : 40682
LLC-rfo_miss : 9905
LLC-prefetch_access : 1985188
LLC-prefetch_hit : 1877079
LLC-prefetch_miss : 108109
LLC-writeback_access : 169884
LLC-writeback_hit : 169630
LLC-writeback_miss : 254
LLC-prefetch_requested : 0
LLC-prefetch_issued : 0
LLC-prefetch_useful : 12815
LLC-prefetch_useless : 94645
LLC-Avg_miss_latency : 169.669
LLC-Morteza_fill_l2_prefetches : 1136974

Major fault: 0 Minor fault: 5596



Printing Logs
statHeadFound: 473124
statHeadMissing: 714165
statStreamBufferHit: 10967719
statPrefetchEntryFound: 4166233
statCompactorMatch: 10282725
statStreamTrackerLookup: 12155008
statRecord: 1872283
statGetPointer: 1187289
statEnqueuePrefetch: 14736841
statPrefetchQueueIsFull: 61076
StreamBufferHitRate: 0.902321
Regions' size: 3651
next_region_correct: 1537531
next_region_wrong: 331083
next_region_correct_prediction: 0.822819
statStreamBufferLookups: 875160576
statL1iLookups: 117894728
statCompactorLookups: 437580288
morteza: start

SHEET
mana_table_access_counter : 6099574
hobp_table_access_counter : 16465610
sab_access_counter : 15133952
srq_access_counter : 12640630

morteza: end
CPU 0 L1D next line prefetcher final stats

DRAM Statistics
 CHANNEL 0
 RQ ROW_BUFFER_HIT:      21422  ROW_BUFFER_MISS:     119529
 DBUS_CONGESTED:      62953
 WQ ROW_BUFFER_HIT:      11002  ROW_BUFFER_MISS:      48781  FULL:          0

 AVG_CONGESTED_CYCLE: 5

CPU 0 Branch Prediction Accuracy: 99.4607% MPKI: 1.00288 Average ROB Occupancy at Mispredict: 107.092

Branch types
NOT_BRANCH: 40701009 81.402%
BRANCH_DIRECT_JUMP: 469809 0.939618%
BRANCH_INDIRECT: 153732 0.307464%
BRANCH_CONDITIONAL: 6944067 13.8881%
BRANCH_DIRECT_CALL: 679878 1.35976%
BRANCH_INDIRECT_CALL: 168745 0.33749%
BRANCH_RETURN: 882492 1.76498%
BRANCH_OTHER: 0 0%

