Initialize SIGNATURE TABLE
ST_SET: 1
ST_WAY: 256
ST_TAG_BIT: 16
ST_TAG_MASK: ffff

Initialize PATTERN TABLE
PT_SET: 512
PT_WAY: 4
SIG_DELTA_BIT: 7
C_SIG_BIT: 4
C_DELTA_BIT: 4

Initialize PREFETCH FILTER
FILTER_SET: 1024
MANA initialize 
tds: 2 tdm: 2
size MANA SINGLE: 15.5 KB
size MANA NULTIPLE: 0 KB
size HOBPT: 0.703125 KB
size SRQ: 0.14502 KB
size SABs: 0.290039 KB
size prefetch queue: 0.453125 KB
total: 17.0913 KB

*** ChampSim Multicore Out-of-Order Simulator ***

Warmup Instructions: 50000000
Simulation Instructions: 50000000
Number of CPUs: 1
LLC sets: 2048
LLC ways: 16
Off-chip DRAM Size: 4096 MB Channels: 1 Width: 64-bit Data Rate: 3200 MT/s

CPU 0 runs /home/mbaradaran/ChampSim/dpc3_traces/server_014.champsimtrace.xz
CPU 0 L1D next line prefetcher
Heartbeat CPU 0 instructions: 10000003 cycles: 3519543 heartbeat IPC: 2.84128 cumulative IPC: 2.84128 (Simulation time: 0 hr 1 min 46 sec) 
Heartbeat CPU 0 instructions: 20000000 cycles: 7106574 heartbeat IPC: 2.78782 cumulative IPC: 2.8143 (Simulation time: 0 hr 3 min 29 sec) 
Heartbeat CPU 0 instructions: 30000001 cycles: 10648125 heartbeat IPC: 2.82362 cumulative IPC: 2.8174 (Simulation time: 0 hr 5 min 20 sec) 
Heartbeat CPU 0 instructions: 40000003 cycles: 14196347 heartbeat IPC: 2.81831 cumulative IPC: 2.81763 (Simulation time: 0 hr 7 min 18 sec) 
Heartbeat CPU 0 instructions: 50000000 cycles: 17745022 heartbeat IPC: 2.81795 cumulative IPC: 2.81769 (Simulation time: 0 hr 9 min 11 sec) 

Warmup complete CPU 0 instructions: 50000001 cycles: 17745023 (Simulation time: 0 hr 9 min 11 sec) 

Heartbeat CPU 0 instructions: 60000000 cycles: 24071429 heartbeat IPC: 1.58068 cumulative IPC: 1.58068 (Simulation time: 0 hr 10 min 54 sec) 
Heartbeat CPU 0 instructions: 70000003 cycles: 30398824 heartbeat IPC: 1.58043 cumulative IPC: 1.58055 (Simulation time: 0 hr 12 min 47 sec) 
*** Reached end of trace for Core: 0 Repeating trace: /home/mbaradaran/ChampSim/dpc3_traces/server_014.champsimtrace.xz
Heartbeat CPU 0 instructions: 80000001 cycles: 37025141 heartbeat IPC: 1.50913 cumulative IPC: 1.55601 (Simulation time: 0 hr 14 min 32 sec) 
Heartbeat CPU 0 instructions: 90000003 cycles: 44693784 heartbeat IPC: 1.30401 cumulative IPC: 1.4843 (Simulation time: 0 hr 16 min 24 sec) 
Heartbeat CPU 0 instructions: 100000001 cycles: 51215060 heartbeat IPC: 1.53344 cumulative IPC: 1.49387 (Simulation time: 0 hr 18 min 21 sec) 
Finished CPU 0 instructions: 50000000 cycles: 33470037 cumulative IPC: 1.49387 (Simulation time: 0 hr 18 min 21 sec) 

ChampSim completed all CPUs

Region of Interest Statistics

CPU 0 cumulative IPC: 1.49387 instructions: 50000000 cycles: 33470037

SHEET
IPC : 1.49387

L1D TOTAL     ACCESS:   21721686  HIT:   21650825  MISS:      70861
L1D LOAD      ACCESS:    6718829  HIT:    6691890  MISS:      26939
L1D RFO       ACCESS:    8414013  HIT:    8381931  MISS:      32082
L1D PREFETCH  ACCESS:    6588844  HIT:    6577004  MISS:      11840
L1D WRITEBACK ACCESS:          0  HIT:          0  MISS:          0
L1D PREFETCH  REQUESTED:    6723415  ISSUED:    6617372  USEFUL:       3289  USELESS:       8551
L1D AVERAGE MISS LATENCY: 233.531 cycles
L1D

SHEET
L1D-total_access : 21721686
L1D-total_hit : 21650825
L1D-total_miss : 70861
L1D-load_access : 6718829
L1D-load_hit : 6691890
L1D-load_miss : 26939
L1D-rfo_access : 8414013
L1D-rfo_hit : 8381931
L1D-rfo_miss : 32082
L1D-prefetch_access : 6588844
L1D-prefetch_hit : 6577004
L1D-prefetch_miss : 11840
L1D-writeback_access : 0
L1D-writeback_hit : 0
L1D-writeback_miss : 0
L1D-prefetch_requested : 6723415
L1D-prefetch_issued : 6617372
L1D-prefetch_useful : 3289
L1D-prefetch_useless : 8551
L1D-Avg_miss_latency : 233.531
L1D-Morteza_fill_l2_prefetches : 0

L1I TOTAL     ACCESS:   21922380  HIT:   19813240  MISS:    2109140
L1I LOAD      ACCESS:    9598276  HIT:    9276613  MISS:     321663
L1I RFO       ACCESS:          0  HIT:          0  MISS:          0
L1I PREFETCH  ACCESS:   12324104  HIT:   10536627  MISS:    1787477
L1I WRITEBACK ACCESS:          0  HIT:          0  MISS:          0
L1I PREFETCH  REQUESTED:   13181757  ISSUED:   13028764  USEFUL:    1408864  USELESS:     378616
L1I AVERAGE MISS LATENCY: 14.6159 cycles
L1I

SHEET
L1I-total_access : 21922380
L1I-total_hit : 19813240
L1I-total_miss : 2109140
L1I-load_access : 9598276
L1I-load_hit : 9276613
L1I-load_miss : 321663
L1I-rfo_access : 0
L1I-rfo_hit : 0
L1I-rfo_miss : 0
L1I-prefetch_access : 12324104
L1I-prefetch_hit : 10536627
L1I-prefetch_miss : 1787477
L1I-writeback_access : 0
L1I-writeback_hit : 0
L1I-writeback_miss : 0
L1I-prefetch_requested : 13181757
L1I-prefetch_issued : 13028764
L1I-prefetch_useful : 1408864
L1I-prefetch_useless : 378616
L1I-Avg_miss_latency : 14.6159
L1I-Morteza_fill_l2_prefetches : 0

L2C TOTAL     ACCESS:    3026211  HIT:    2952919  MISS:      73292
L2C LOAD      ACCESS:     234663  HIT:     214084  MISS:      20579
L2C RFO       ACCESS:      32025  HIT:       1082  MISS:      30943
L2C PREFETCH  ACCESS:    2721154  HIT:    2699409  MISS:      21745
L2C WRITEBACK ACCESS:      38369  HIT:      38344  MISS:         25
L2C PREFETCH  REQUESTED:    2454095  ISSUED:    2453994  USEFUL:       1615  USELESS:      19972
L2C AVERAGE MISS LATENCY: 259.424 cycles
L2C

SHEET
L2C-total_access : 3026211
L2C-total_hit : 2952919
L2C-total_miss : 73292
L2C-load_access : 234663
L2C-load_hit : 214084
L2C-load_miss : 20579
L2C-rfo_access : 32025
L2C-rfo_hit : 1082
L2C-rfo_miss : 30943
L2C-prefetch_access : 2721154
L2C-prefetch_hit : 2699409
L2C-prefetch_miss : 21745
L2C-writeback_access : 38369
L2C-writeback_hit : 38344
L2C-writeback_miss : 25
L2C-prefetch_requested : 2454095
L2C-prefetch_issued : 2453994
L2C-prefetch_useful : 1615
L2C-prefetch_useless : 19972
L2C-Avg_miss_latency : 259.424
L2C-Morteza_fill_l2_prefetches : 823892

LLC TOTAL     ACCESS:     516472  HIT:     450011  MISS:      66461
LLC LOAD      ACCESS:      19445  HIT:       5825  MISS:      13620
LLC RFO       ACCESS:      30943  HIT:       3995  MISS:      26948
LLC PREFETCH  ACCESS:     431195  HIT:     405421  MISS:      25774
LLC WRITEBACK ACCESS:      34889  HIT:      34770  MISS:        119
LLC PREFETCH  REQUESTED:          0  ISSUED:          0  USEFUL:       4418  USELESS:      21961
LLC AVERAGE MISS LATENCY: 310.704 cycles
LLC

SHEET
LLC-total_access : 516472
LLC-total_hit : 450011
LLC-total_miss : 66461
LLC-load_access : 19445
LLC-load_hit : 5825
LLC-load_miss : 13620
LLC-rfo_access : 30943
LLC-rfo_hit : 3995
LLC-rfo_miss : 26948
LLC-prefetch_access : 431195
LLC-prefetch_hit : 405421
LLC-prefetch_miss : 25774
LLC-writeback_access : 34889
LLC-writeback_hit : 34770
LLC-writeback_miss : 119
LLC-prefetch_requested : 0
LLC-prefetch_issued : 0
LLC-prefetch_useful : 4418
LLC-prefetch_useless : 21961
LLC-Avg_miss_latency : 310.704
LLC-Morteza_fill_l2_prefetches : 397425

Major fault: 0 Minor fault: 1911



Printing Logs
statHeadFound: 1100433
statHeadMissing: 568775
statStreamBufferHit: 12959625
statPrefetchEntryFound: 8444876
statCompactorMatch: 11450990
statStreamTrackerLookup: 14628833
statRecord: 3177843
statGetPointer: 1669208
statEnqueuePrefetch: 25833417
statPrefetchQueueIsFull: 629
StreamBufferHitRate: 0.885896
Regions' size: 2668
next_region_correct: 2280192
next_region_wrong: 894965
next_region_correct_prediction: 0.718135
statStreamBufferLookups: 1053275976
statL1iLookups: 206667336
statCompactorLookups: 526637988
morteza: start

SHEET
mana_table_access_counter : 11623330
hobp_table_access_counter : 27833670
sab_access_counter : 21404501
srq_access_counter : 16982631

morteza: end
CPU 0 L1D next line prefetcher final stats

DRAM Statistics
 CHANNEL 0
 RQ ROW_BUFFER_HIT:      28724  ROW_BUFFER_MISS:      37615
 DBUS_CONGESTED:      67234
 WQ ROW_BUFFER_HIT:       8640  ROW_BUFFER_MISS:      24289  FULL:          0

 AVG_CONGESTED_CYCLE: 6

CPU 0 Branch Prediction Accuracy: 99.7719% MPKI: 0.38824 Average ROB Occupancy at Mispredict: 142.804

Branch types
NOT_BRANCH: 41488867 82.9777%
BRANCH_DIRECT_JUMP: 449416 0.898832%
BRANCH_INDIRECT: 2330 0.00466%
BRANCH_CONDITIONAL: 5470007 10.94%
BRANCH_DIRECT_CALL: 1172180 2.34436%
BRANCH_INDIRECT_CALL: 122383 0.244766%
BRANCH_RETURN: 1294546 2.58909%
BRANCH_OTHER: 0 0%

