Initialize SIGNATURE TABLE
ST_SET: 1
ST_WAY: 256
ST_TAG_BIT: 16
ST_TAG_MASK: ffff

Initialize PATTERN TABLE
PT_SET: 512
PT_WAY: 4
SIG_DELTA_BIT: 7
C_SIG_BIT: 4
C_DELTA_BIT: 4

Initialize PREFETCH FILTER
FILTER_SET: 1024
MANA initialize 
tds: 2 tdm: 2
size MANA SINGLE: 15.5 KB
size MANA NULTIPLE: 0 KB
size HOBPT: 0.703125 KB
size SRQ: 0.14502 KB
size SABs: 0.290039 KB
size prefetch queue: 0.453125 KB
total: 17.0913 KB

*** ChampSim Multicore Out-of-Order Simulator ***

Warmup Instructions: 50000000
Simulation Instructions: 50000000
Number of CPUs: 1
LLC sets: 2048
LLC ways: 16
Off-chip DRAM Size: 4096 MB Channels: 1 Width: 64-bit Data Rate: 3200 MT/s

CPU 0 runs /home/mbaradaran/ChampSim/dpc3_traces/server_023.champsimtrace.xz
CPU 0 L1D next line prefetcher
Heartbeat CPU 0 instructions: 10000000 cycles: 3508244 heartbeat IPC: 2.85043 cumulative IPC: 2.85043 (Simulation time: 0 hr 1 min 59 sec) 
Heartbeat CPU 0 instructions: 20000000 cycles: 7015886 heartbeat IPC: 2.85092 cumulative IPC: 2.85067 (Simulation time: 0 hr 3 min 58 sec) 
Heartbeat CPU 0 instructions: 30000001 cycles: 10516676 heartbeat IPC: 2.8565 cumulative IPC: 2.85261 (Simulation time: 0 hr 5 min 53 sec) 
Heartbeat CPU 0 instructions: 40000003 cycles: 14023731 heartbeat IPC: 2.8514 cumulative IPC: 2.85231 (Simulation time: 0 hr 7 min 45 sec) 
Heartbeat CPU 0 instructions: 50000001 cycles: 17532772 heartbeat IPC: 2.84978 cumulative IPC: 2.8518 (Simulation time: 0 hr 9 min 44 sec) 

Warmup complete CPU 0 instructions: 50000001 cycles: 17532772 (Simulation time: 0 hr 9 min 44 sec) 

Heartbeat CPU 0 instructions: 60000002 cycles: 24669795 heartbeat IPC: 1.40114 cumulative IPC: 1.40114 (Simulation time: 0 hr 11 min 34 sec) 
Heartbeat CPU 0 instructions: 70000002 cycles: 32035062 heartbeat IPC: 1.35772 cumulative IPC: 1.37909 (Simulation time: 0 hr 13 min 24 sec) 
Heartbeat CPU 0 instructions: 80000000 cycles: 39266587 heartbeat IPC: 1.38283 cumulative IPC: 1.38034 (Simulation time: 0 hr 15 min 13 sec) 
Heartbeat CPU 0 instructions: 90000000 cycles: 46483907 heartbeat IPC: 1.38556 cumulative IPC: 1.38164 (Simulation time: 0 hr 16 min 58 sec) 
Heartbeat CPU 0 instructions: 100000001 cycles: 53716403 heartbeat IPC: 1.38265 cumulative IPC: 1.38184 (Simulation time: 0 hr 18 min 39 sec) 
Finished CPU 0 instructions: 50000000 cycles: 36183631 cumulative IPC: 1.38184 (Simulation time: 0 hr 18 min 39 sec) 

ChampSim completed all CPUs

Region of Interest Statistics

CPU 0 cumulative IPC: 1.38184 instructions: 50000000 cycles: 36183631

SHEET
IPC : 1.38184

L1D TOTAL     ACCESS:   19811312  HIT:   18344124  MISS:    1467188
L1D LOAD      ACCESS:    7068040  HIT:    6408012  MISS:     660028
L1D RFO       ACCESS:    5994406  HIT:    5733122  MISS:     261284
L1D PREFETCH  ACCESS:    6748866  HIT:    6202990  MISS:     545876
L1D WRITEBACK ACCESS:          0  HIT:          0  MISS:          0
L1D PREFETCH  REQUESTED:    7118666  ISSUED:    7000739  USEFUL:     131090  USELESS:     414795
L1D AVERAGE MISS LATENCY: 24.0503 cycles
L1D

SHEET
L1D-total_access : 19811312
L1D-total_hit : 18344124
L1D-total_miss : 1467188
L1D-load_access : 7068040
L1D-load_hit : 6408012
L1D-load_miss : 660028
L1D-rfo_access : 5994406
L1D-rfo_hit : 5733122
L1D-rfo_miss : 261284
L1D-prefetch_access : 6748866
L1D-prefetch_hit : 6202990
L1D-prefetch_miss : 545876
L1D-writeback_access : 0
L1D-writeback_hit : 0
L1D-writeback_miss : 0
L1D-prefetch_requested : 7118666
L1D-prefetch_issued : 7000739
L1D-prefetch_useful : 131090
L1D-prefetch_useless : 414795
L1D-Avg_miss_latency : 24.0503
L1D-Morteza_fill_l2_prefetches : 0

L1I TOTAL     ACCESS:   18701876  HIT:   14904158  MISS:    3797718
L1I LOAD      ACCESS:    9241377  HIT:    8547920  MISS:     693457
L1I RFO       ACCESS:          0  HIT:          0  MISS:          0
L1I PREFETCH  ACCESS:    9460499  HIT:    6356238  MISS:    3104261
L1I WRITEBACK ACCESS:          0  HIT:          0  MISS:          0
L1I PREFETCH  REQUESTED:   10500350  ISSUED:   10213733  USEFUL:    1820340  USELESS:    1283940
L1I AVERAGE MISS LATENCY: 16.6691 cycles
L1I

SHEET
L1I-total_access : 18701876
L1I-total_hit : 14904158
L1I-total_miss : 3797718
L1I-load_access : 9241377
L1I-load_hit : 8547920
L1I-load_miss : 693457
L1I-rfo_access : 0
L1I-rfo_hit : 0
L1I-rfo_miss : 0
L1I-prefetch_access : 9460499
L1I-prefetch_hit : 6356238
L1I-prefetch_miss : 3104261
L1I-writeback_access : 0
L1I-writeback_hit : 0
L1I-writeback_miss : 0
L1I-prefetch_requested : 10500350
L1I-prefetch_issued : 10213733
L1I-prefetch_useful : 1820340
L1I-prefetch_useless : 1283940
L1I-Avg_miss_latency : 16.6691
L1I-Morteza_fill_l2_prefetches : 0

L2C TOTAL     ACCESS:    7101344  HIT:    6479965  MISS:     621379
L2C LOAD      ACCESS:    1135240  HIT:     962431  MISS:     172809
L2C RFO       ACCESS:     259316  HIT:     170730  MISS:      88586
L2C PREFETCH  ACCESS:    5207559  HIT:    4850324  MISS:     357235
L2C WRITEBACK ACCESS:     499229  HIT:     496480  MISS:       2749
L2C PREFETCH  REQUESTED:    5873470  ISSUED:    5863124  USEFUL:      28796  USELESS:     327650
L2C AVERAGE MISS LATENCY: 42.9982 cycles
L2C

SHEET
L2C-total_access : 7101344
L2C-total_hit : 6479965
L2C-total_miss : 621379
L2C-load_access : 1135240
L2C-load_hit : 962431
L2C-load_miss : 172809
L2C-rfo_access : 259316
L2C-rfo_hit : 170730
L2C-rfo_miss : 88586
L2C-prefetch_access : 5207559
L2C-prefetch_hit : 4850324
L2C-prefetch_miss : 357235
L2C-writeback_access : 499229
L2C-writeback_hit : 496480
L2C-writeback_miss : 2749
L2C-prefetch_requested : 5873470
L2C-prefetch_issued : 5863124
L2C-prefetch_useful : 28796
L2C-prefetch_useless : 327650
L2C-Avg_miss_latency : 42.9982
L2C-Morteza_fill_l2_prefetches : 1381098

LLC TOTAL     ACCESS:    2239228  HIT:    2190828  MISS:      48400
LLC LOAD      ACCESS:     172660  HIT:     166267  MISS:       6393
LLC RFO       ACCESS:      88583  HIT:      70743  MISS:      17840
LLC PREFETCH  ACCESS:    1839549  HIT:    1815641  MISS:      23908
LLC WRITEBACK ACCESS:     138436  HIT:     138177  MISS:        259
LLC PREFETCH  REQUESTED:          0  ISSUED:          0  USEFUL:       2634  USELESS:      20862
LLC AVERAGE MISS LATENCY: 183.824 cycles
LLC

SHEET
LLC-total_access : 2239228
LLC-total_hit : 2190828
LLC-total_miss : 48400
LLC-load_access : 172660
LLC-load_hit : 166267
LLC-load_miss : 6393
LLC-rfo_access : 88583
LLC-rfo_hit : 70743
LLC-rfo_miss : 17840
LLC-prefetch_access : 1839549
LLC-prefetch_hit : 1815641
LLC-prefetch_miss : 23908
LLC-writeback_access : 138436
LLC-writeback_hit : 138177
LLC-writeback_miss : 259
LLC-prefetch_requested : 0
LLC-prefetch_issued : 0
LLC-prefetch_useful : 2634
LLC-prefetch_useless : 20862
LLC-Avg_miss_latency : 183.824
LLC-Morteza_fill_l2_prefetches : 1487271

Major fault: 0 Minor fault: 2766



Printing Logs
statHeadFound: 974529
statHeadMissing: 1128037
statStreamBufferHit: 12073740
statPrefetchEntryFound: 6825958
statCompactorMatch: 11840410
statStreamTrackerLookup: 14176306
statRecord: 2335896
statGetPointer: 2102566
statEnqueuePrefetch: 20549704
statPrefetchQueueIsFull: 52715
StreamBufferHitRate: 0.851684
Regions' size: 2761
next_region_correct: 1585606
next_region_wrong: 747511
next_region_correct_prediction: 0.679608
statStreamBufferLookups: 1020694032
statL1iLookups: 164397632
statCompactorLookups: 510347016
morteza: start

SHEET
mana_table_access_counter : 9214551
hobp_table_access_counter : 24632521
sab_access_counter : 18899698
srq_access_counter : 15179568

morteza: end
CPU 0 L1D next line prefetcher final stats

DRAM Statistics
 CHANNEL 0
 RQ ROW_BUFFER_HIT:      14763  ROW_BUFFER_MISS:      33363
 DBUS_CONGESTED:      32076
 WQ ROW_BUFFER_HIT:       2546  ROW_BUFFER_MISS:      19188  FULL:          0

 AVG_CONGESTED_CYCLE: 6

CPU 0 Branch Prediction Accuracy: 99.6798% MPKI: 0.58608 Average ROB Occupancy at Mispredict: 124.245

Branch types
NOT_BRANCH: 40848132 81.6963%
BRANCH_DIRECT_JUMP: 548369 1.09674%
BRANCH_INDIRECT: 189802 0.379604%
BRANCH_CONDITIONAL: 6372728 12.7455%
BRANCH_DIRECT_CALL: 862206 1.72441%
BRANCH_INDIRECT_CALL: 158147 0.316294%
BRANCH_RETURN: 1020342 2.04068%
BRANCH_OTHER: 0 0%

