Initialize SIGNATURE TABLE
ST_SET: 1
ST_WAY: 256
ST_TAG_BIT: 16
ST_TAG_MASK: ffff

Initialize PATTERN TABLE
PT_SET: 512
PT_WAY: 4
SIG_DELTA_BIT: 7
C_SIG_BIT: 4
C_DELTA_BIT: 4

Initialize PREFETCH FILTER
FILTER_SET: 1024
MANA initialize 
tds: 2 tdm: 2
size MANA SINGLE: 15.5 KB
size MANA NULTIPLE: 0 KB
size HOBPT: 0.703125 KB
size SRQ: 0.14502 KB
size SABs: 0.290039 KB
size prefetch queue: 0.453125 KB
total: 17.0913 KB

*** ChampSim Multicore Out-of-Order Simulator ***

Warmup Instructions: 50000000
Simulation Instructions: 50000000
Number of CPUs: 1
LLC sets: 2048
LLC ways: 16
Off-chip DRAM Size: 4096 MB Channels: 1 Width: 64-bit Data Rate: 3200 MT/s

CPU 0 runs /home/mbaradaran/ChampSim/dpc3_traces/server_003.champsimtrace.xz
CPU 0 L1D next line prefetcher
Heartbeat CPU 0 instructions: 10000002 cycles: 3226648 heartbeat IPC: 3.09919 cumulative IPC: 3.09919 (Simulation time: 0 hr 1 min 46 sec) 
Heartbeat CPU 0 instructions: 20000000 cycles: 6549226 heartbeat IPC: 3.00971 cumulative IPC: 3.0538 (Simulation time: 0 hr 3 min 35 sec) 
Heartbeat CPU 0 instructions: 30000000 cycles: 9763598 heartbeat IPC: 3.11103 cumulative IPC: 3.07264 (Simulation time: 0 hr 5 min 17 sec) 
Heartbeat CPU 0 instructions: 40000001 cycles: 13181983 heartbeat IPC: 2.92536 cumulative IPC: 3.03444 (Simulation time: 0 hr 7 min 17 sec) 
Heartbeat CPU 0 instructions: 50000003 cycles: 16901141 heartbeat IPC: 2.68878 cumulative IPC: 2.95838 (Simulation time: 0 hr 9 min 12 sec) 

Warmup complete CPU 0 instructions: 50000003 cycles: 16901141 (Simulation time: 0 hr 9 min 12 sec) 

Heartbeat CPU 0 instructions: 60000000 cycles: 26181098 heartbeat IPC: 1.07759 cumulative IPC: 1.07759 (Simulation time: 0 hr 11 min 2 sec) 
Heartbeat CPU 0 instructions: 70000003 cycles: 35477643 heartbeat IPC: 1.07567 cumulative IPC: 1.07663 (Simulation time: 0 hr 12 min 40 sec) 
Heartbeat CPU 0 instructions: 80000000 cycles: 46046690 heartbeat IPC: 0.946159 cumulative IPC: 1.02932 (Simulation time: 0 hr 14 min 17 sec) 
Heartbeat CPU 0 instructions: 90000001 cycles: 56743506 heartbeat IPC: 0.934858 cumulative IPC: 1.00396 (Simulation time: 0 hr 15 min 53 sec) 
Heartbeat CPU 0 instructions: 100000001 cycles: 68029119 heartbeat IPC: 0.886084 cumulative IPC: 0.977938 (Simulation time: 0 hr 17 min 33 sec) 
Finished CPU 0 instructions: 50000002 cycles: 51127979 cumulative IPC: 0.977938 (Simulation time: 0 hr 17 min 33 sec) 

ChampSim completed all CPUs

Region of Interest Statistics

CPU 0 cumulative IPC: 0.977938 instructions: 50000002 cycles: 51127979

SHEET
IPC : 0.977938

L1D TOTAL     ACCESS:   20088050  HIT:   18947112  MISS:    1140938
L1D LOAD      ACCESS:    7894129  HIT:    7365166  MISS:     528963
L1D RFO       ACCESS:    4559013  HIT:    4441665  MISS:     117348
L1D PREFETCH  ACCESS:    7634908  HIT:    7140281  MISS:     494627
L1D WRITEBACK ACCESS:          0  HIT:          0  MISS:          0
L1D PREFETCH  REQUESTED:    7953878  ISSUED:    7861455  USEFUL:     156369  USELESS:     338217
L1D AVERAGE MISS LATENCY: 53.9359 cycles
L1D

SHEET
L1D-total_access : 20088050
L1D-total_hit : 18947112
L1D-total_miss : 1140938
L1D-load_access : 7894129
L1D-load_hit : 7365166
L1D-load_miss : 528963
L1D-rfo_access : 4559013
L1D-rfo_hit : 4441665
L1D-rfo_miss : 117348
L1D-prefetch_access : 7634908
L1D-prefetch_hit : 7140281
L1D-prefetch_miss : 494627
L1D-writeback_access : 0
L1D-writeback_hit : 0
L1D-writeback_miss : 0
L1D-prefetch_requested : 7953878
L1D-prefetch_issued : 7861455
L1D-prefetch_useful : 156369
L1D-prefetch_useless : 338217
L1D-Avg_miss_latency : 53.9359
L1D-Morteza_fill_l2_prefetches : 0

L1I TOTAL     ACCESS:   16592960  HIT:   15115172  MISS:    1477788
L1I LOAD      ACCESS:    9283440  HIT:    8997979  MISS:     285461
L1I RFO       ACCESS:          0  HIT:          0  MISS:          0
L1I PREFETCH  ACCESS:    7309520  HIT:    6117193  MISS:    1192327
L1I WRITEBACK ACCESS:          0  HIT:          0  MISS:          0
L1I PREFETCH  REQUESTED:    8096371  ISSUED:    7724561  USEFUL:     637037  USELESS:     555047
L1I AVERAGE MISS LATENCY: 33.4524 cycles
L1I

SHEET
L1I-total_access : 16592960
L1I-total_hit : 15115172
L1I-total_miss : 1477788
L1I-load_access : 9283440
L1I-load_hit : 8997979
L1I-load_miss : 285461
L1I-rfo_access : 0
L1I-rfo_hit : 0
L1I-rfo_miss : 0
L1I-prefetch_access : 7309520
L1I-prefetch_hit : 6117193
L1I-prefetch_miss : 1192327
L1I-writeback_access : 0
L1I-writeback_hit : 0
L1I-writeback_miss : 0
L1I-prefetch_requested : 8096371
L1I-prefetch_issued : 7724561
L1I-prefetch_useful : 637037
L1I-prefetch_useless : 555047
L1I-Avg_miss_latency : 33.4524
L1I-Morteza_fill_l2_prefetches : 0

L2C TOTAL     ACCESS:    3472610  HIT:    2464871  MISS:    1007739
L2C LOAD      ACCESS:     738576  HIT:     399043  MISS:     339533
L2C RFO       ACCESS:     114642  HIT:      40122  MISS:      74520
L2C PREFETCH  ACCESS:    2335136  HIT:    1743122  MISS:     592014
L2C WRITEBACK ACCESS:     284256  HIT:     282584  MISS:       1672
L2C PREFETCH  REQUESTED:    2848096  ISSUED:    2845017  USEFUL:      44847  USELESS:     545407
L2C AVERAGE MISS LATENCY: 74.7002 cycles
L2C

SHEET
L2C-total_access : 3472610
L2C-total_hit : 2464871
L2C-total_miss : 1007739
L2C-load_access : 738576
L2C-load_hit : 399043
L2C-load_miss : 339533
L2C-rfo_access : 114642
L2C-rfo_hit : 40122
L2C-rfo_miss : 74520
L2C-prefetch_access : 2335136
L2C-prefetch_hit : 1743122
L2C-prefetch_miss : 592014
L2C-writeback_access : 284256
L2C-writeback_hit : 282584
L2C-writeback_miss : 1672
L2C-prefetch_requested : 2848096
L2C-prefetch_issued : 2845017
L2C-prefetch_useful : 44847
L2C-prefetch_useless : 545407
L2C-Avg_miss_latency : 74.7002
L2C-Morteza_fill_l2_prefetches : 578699

LLC TOTAL     ACCESS:    1969205  HIT:    1611320  MISS:     357885
LLC LOAD      ACCESS:     337956  HIT:     255339  MISS:      82617
LLC RFO       ACCESS:      74518  HIT:      32701  MISS:      41817
LLC PREFETCH  ACCESS:    1390245  HIT:    1157978  MISS:     232267
LLC WRITEBACK ACCESS:     166486  HIT:     165302  MISS:       1184
LLC PREFETCH  REQUESTED:          0  ISSUED:          0  USEFUL:      42237  USELESS:     181026
LLC AVERAGE MISS LATENCY: 180.674 cycles
LLC

SHEET
LLC-total_access : 1969205
LLC-total_hit : 1611320
LLC-total_miss : 357885
LLC-load_access : 337956
LLC-load_hit : 255339
LLC-load_miss : 82617
LLC-rfo_access : 74518
LLC-rfo_hit : 32701
LLC-rfo_miss : 41817
LLC-prefetch_access : 1390245
LLC-prefetch_hit : 1157978
LLC-prefetch_miss : 232267
LLC-writeback_access : 166486
LLC-writeback_hit : 165302
LLC-writeback_miss : 1184
LLC-prefetch_requested : 0
LLC-prefetch_issued : 0
LLC-prefetch_useful : 42237
LLC-prefetch_useless : 181026
LLC-Avg_miss_latency : 180.674
LLC-Morteza_fill_l2_prefetches : 710977

Major fault: 0 Minor fault: 7768



Printing Logs
statHeadFound: 617243
statHeadMissing: 1196323
statStreamBufferHit: 11980239
statPrefetchEntryFound: 4867586
statCompactorMatch: 12232400
statStreamTrackerLookup: 13793805
statRecord: 1561405
statGetPointer: 1813566
statEnqueuePrefetch: 15758906
statPrefetchQueueIsFull: 55475
StreamBufferHitRate: 0.868523
Regions' size: 9171
next_region_correct: 1123260
next_region_wrong: 428956
next_region_correct_prediction: 0.723649
statStreamBufferLookups: 993153960
statL1iLookups: 126071248
statCompactorLookups: 496576980
morteza: start

SHEET
mana_table_access_counter : 6484448
hobp_table_access_counter : 18422960
sab_access_counter : 16847825
srq_access_counter : 12984350

morteza: end
CPU 0 L1D next line prefetcher final stats

DRAM Statistics
 CHANNEL 0
 RQ ROW_BUFFER_HIT:      78408  ROW_BUFFER_MISS:     278260
 DBUS_CONGESTED:     179265
 WQ ROW_BUFFER_HIT:      24225  ROW_BUFFER_MISS:      78282  FULL:          0

 AVG_CONGESTED_CYCLE: 5

CPU 0 Branch Prediction Accuracy: 95.439% MPKI: 9.02702 Average ROB Occupancy at Mispredict: 63.6832

Branch types
NOT_BRANCH: 40104086 80.2082%
BRANCH_DIRECT_JUMP: 497928 0.995856%
BRANCH_INDIRECT: 130587 0.261174%
BRANCH_CONDITIONAL: 7219017 14.438%
BRANCH_DIRECT_CALL: 625807 1.25161%
BRANCH_INDIRECT_CALL: 389787 0.779574%
BRANCH_RETURN: 1032747 2.06549%
BRANCH_OTHER: 0 0%

