Initialize SIGNATURE TABLE
ST_SET: 1
ST_WAY: 256
ST_TAG_BIT: 16
ST_TAG_MASK: ffff

Initialize PATTERN TABLE
PT_SET: 512
PT_WAY: 4
SIG_DELTA_BIT: 7
C_SIG_BIT: 4
C_DELTA_BIT: 4

Initialize PREFETCH FILTER
FILTER_SET: 1024
MANA initialize 
tds: 2 tdm: 2
size MANA SINGLE: 15.5 KB
size MANA NULTIPLE: 0 KB
size HOBPT: 0.703125 KB
size SRQ: 0.14502 KB
size SABs: 0.290039 KB
size prefetch queue: 0.453125 KB
total: 17.0913 KB

*** ChampSim Multicore Out-of-Order Simulator ***

Warmup Instructions: 50000000
Simulation Instructions: 50000000
Number of CPUs: 1
LLC sets: 2048
LLC ways: 16
Off-chip DRAM Size: 4096 MB Channels: 1 Width: 64-bit Data Rate: 3200 MT/s

CPU 0 runs /home/mbaradaran/ChampSim/dpc3_traces/server_004.champsimtrace.xz
CPU 0 L1D next line prefetcher
Heartbeat CPU 0 instructions: 10000002 cycles: 3235321 heartbeat IPC: 3.09088 cumulative IPC: 3.09088 (Simulation time: 0 hr 1 min 50 sec) 
Heartbeat CPU 0 instructions: 20000002 cycles: 6574897 heartbeat IPC: 2.99439 cumulative IPC: 3.04187 (Simulation time: 0 hr 3 min 37 sec) 
Heartbeat CPU 0 instructions: 30000000 cycles: 11692950 heartbeat IPC: 1.95387 cumulative IPC: 2.56565 (Simulation time: 0 hr 5 min 52 sec) 
Heartbeat CPU 0 instructions: 40000003 cycles: 15445672 heartbeat IPC: 2.66473 cumulative IPC: 2.58972 (Simulation time: 0 hr 7 min 49 sec) 
Heartbeat CPU 0 instructions: 50000003 cycles: 18680000 heartbeat IPC: 3.09183 cumulative IPC: 2.67666 (Simulation time: 0 hr 9 min 38 sec) 

Warmup complete CPU 0 instructions: 50000003 cycles: 18680000 (Simulation time: 0 hr 9 min 38 sec) 

Heartbeat CPU 0 instructions: 60000002 cycles: 27953440 heartbeat IPC: 1.07835 cumulative IPC: 1.07835 (Simulation time: 0 hr 11 min 20 sec) 
Heartbeat CPU 0 instructions: 70000000 cycles: 36688573 heartbeat IPC: 1.1448 cumulative IPC: 1.11058 (Simulation time: 0 hr 13 min 5 sec) 
Heartbeat CPU 0 instructions: 80000001 cycles: 57829913 heartbeat IPC: 0.473007 cumulative IPC: 0.766285 (Simulation time: 0 hr 15 min 49 sec) 
Heartbeat CPU 0 instructions: 90000003 cycles: 73249021 heartbeat IPC: 0.648546 cumulative IPC: 0.733017 (Simulation time: 0 hr 17 min 55 sec) 
Heartbeat CPU 0 instructions: 100000003 cycles: 82681262 heartbeat IPC: 1.06019 cumulative IPC: 0.781235 (Simulation time: 0 hr 19 min 32 sec) 
Finished CPU 0 instructions: 50000000 cycles: 64001262 cumulative IPC: 0.781235 (Simulation time: 0 hr 19 min 32 sec) 

ChampSim completed all CPUs

Region of Interest Statistics

CPU 0 cumulative IPC: 0.781235 instructions: 50000000 cycles: 64001262

SHEET
IPC : 0.781235

L1D TOTAL     ACCESS:   21801619  HIT:   17730403  MISS:    4071216
L1D LOAD      ACCESS:    8680044  HIT:    6663456  MISS:    2016588
L1D RFO       ACCESS:    4649440  HIT:    4542555  MISS:     106885
L1D PREFETCH  ACCESS:    8472135  HIT:    6524392  MISS:    1947743
L1D WRITEBACK ACCESS:          0  HIT:          0  MISS:          0
L1D PREFETCH  REQUESTED:    8716091  ISSUED:    8625379  USEFUL:     108002  USELESS:    1839731
L1D AVERAGE MISS LATENCY: 22.8964 cycles
L1D

SHEET
L1D-total_access : 21801619
L1D-total_hit : 17730403
L1D-total_miss : 4071216
L1D-load_access : 8680044
L1D-load_hit : 6663456
L1D-load_miss : 2016588
L1D-rfo_access : 4649440
L1D-rfo_hit : 4542555
L1D-rfo_miss : 106885
L1D-prefetch_access : 8472135
L1D-prefetch_hit : 6524392
L1D-prefetch_miss : 1947743
L1D-writeback_access : 0
L1D-writeback_hit : 0
L1D-writeback_miss : 0
L1D-prefetch_requested : 8716091
L1D-prefetch_issued : 8625379
L1D-prefetch_useful : 108002
L1D-prefetch_useless : 1839731
L1D-Avg_miss_latency : 22.8964
L1D-Morteza_fill_l2_prefetches : 0

L1I TOTAL     ACCESS:   17609638  HIT:   15814657  MISS:    1794981
L1I LOAD      ACCESS:   10663575  HIT:   10329966  MISS:     333609
L1I RFO       ACCESS:          0  HIT:          0  MISS:          0
L1I PREFETCH  ACCESS:    6946063  HIT:    5484691  MISS:    1461372
L1I WRITEBACK ACCESS:          0  HIT:          0  MISS:          0
L1I PREFETCH  REQUESTED:    7655013  ISSUED:    7255438  USEFUL:     765350  USELESS:     695987
L1I AVERAGE MISS LATENCY: 30.5266 cycles
L1I

SHEET
L1I-total_access : 17609638
L1I-total_hit : 15814657
L1I-total_miss : 1794981
L1I-load_access : 10663575
L1I-load_hit : 10329966
L1I-load_miss : 333609
L1I-rfo_access : 0
L1I-rfo_hit : 0
L1I-rfo_miss : 0
L1I-prefetch_access : 6946063
L1I-prefetch_hit : 5484691
L1I-prefetch_miss : 1461372
L1I-writeback_access : 0
L1I-writeback_hit : 0
L1I-writeback_miss : 0
L1I-prefetch_requested : 7655013
L1I-prefetch_issued : 7255438
L1I-prefetch_useful : 765350
L1I-prefetch_useless : 695987
L1I-Avg_miss_latency : 30.5266
L1I-Morteza_fill_l2_prefetches : 0

L2C TOTAL     ACCESS:    7373225  HIT:    6275642  MISS:    1097583
L2C LOAD      ACCESS:    2266986  HIT:    1904070  MISS:     362916
L2C RFO       ACCESS:     105610  HIT:      55638  MISS:      49972
L2C PREFETCH  ACCESS:    4755595  HIT:    4073179  MISS:     682416
L2C WRITEBACK ACCESS:     245034  HIT:     242755  MISS:       2279
L2C PREFETCH  REQUESTED:    7036612  ISSUED:    7032416  USEFUL:      47034  USELESS:     634295
L2C AVERAGE MISS LATENCY: 54.9078 cycles
L2C

SHEET
L2C-total_access : 7373225
L2C-total_hit : 6275642
L2C-total_miss : 1097583
L2C-load_access : 2266986
L2C-load_hit : 1904070
L2C-load_miss : 362916
L2C-rfo_access : 105610
L2C-rfo_hit : 55638
L2C-rfo_miss : 49972
L2C-prefetch_access : 4755595
L2C-prefetch_hit : 4073179
L2C-prefetch_miss : 682416
L2C-writeback_access : 245034
L2C-writeback_hit : 242755
L2C-writeback_miss : 2279
L2C-prefetch_requested : 7036612
L2C-prefetch_issued : 7032416
L2C-prefetch_useful : 47034
L2C-prefetch_useless : 634295
L2C-Avg_miss_latency : 54.9078
L2C-Morteza_fill_l2_prefetches : 1269379

LLC TOTAL     ACCESS:    2613831  HIT:    2385318  MISS:     228513
LLC LOAD      ACCESS:     360805  HIT:     307584  MISS:      53221
LLC RFO       ACCESS:      49967  HIT:      34408  MISS:      15559
LLC PREFETCH  ACCESS:    2058776  HIT:    1899287  MISS:     159489
LLC WRITEBACK ACCESS:     144283  HIT:     144039  MISS:        244
LLC PREFETCH  REQUESTED:          0  ISSUED:          0  USEFUL:      26316  USELESS:     132235
LLC AVERAGE MISS LATENCY: 169.077 cycles
LLC

SHEET
LLC-total_access : 2613831
LLC-total_hit : 2385318
LLC-total_miss : 228513
LLC-load_access : 360805
LLC-load_hit : 307584
LLC-load_miss : 53221
LLC-rfo_access : 49967
LLC-rfo_hit : 34408
LLC-rfo_miss : 15559
LLC-prefetch_access : 2058776
LLC-prefetch_hit : 1899287
LLC-prefetch_miss : 159489
LLC-writeback_access : 144283
LLC-writeback_hit : 144039
LLC-writeback_miss : 244
LLC-prefetch_requested : 0
LLC-prefetch_issued : 0
LLC-prefetch_useful : 26316
LLC-prefetch_useless : 132235
LLC-Avg_miss_latency : 169.077
LLC-Morteza_fill_l2_prefetches : 1333865

Major fault: 0 Minor fault: 7592



Printing Logs
statHeadFound: 532935
statHeadMissing: 1522150
statStreamBufferHit: 13291875
statPrefetchEntryFound: 4503909
statCompactorMatch: 13485423
statStreamTrackerLookup: 15346960
statRecord: 1861537
statGetPointer: 2055085
statEnqueuePrefetch: 14268401
statPrefetchQueueIsFull: 62045
StreamBufferHitRate: 0.866092
Regions' size: 8580
next_region_correct: 1519327
next_region_wrong: 333612
next_region_correct_prediction: 0.819955
statStreamBufferLookups: 1104981120
statL1iLookups: 114147208
statCompactorLookups: 552490560
morteza: start

SHEET
mana_table_access_counter : 6427473
hobp_table_access_counter : 20232457
sab_access_counter : 17795784
srq_access_counter : 14069015

morteza: end
CPU 0 L1D next line prefetcher final stats

DRAM Statistics
 CHANNEL 0
 RQ ROW_BUFFER_HIT:      46983  ROW_BUFFER_MISS:     181261
 DBUS_CONGESTED:      94108
 WQ ROW_BUFFER_HIT:      11675  ROW_BUFFER_MISS:      43420  FULL:          0

 AVG_CONGESTED_CYCLE: 5

CPU 0 Branch Prediction Accuracy: 98.1603% MPKI: 3.89124 Average ROB Occupancy at Mispredict: 60.379

Branch types
NOT_BRANCH: 39423755 78.8475%
BRANCH_DIRECT_JUMP: 551642 1.10328%
BRANCH_INDIRECT: 139368 0.278736%
BRANCH_CONDITIONAL: 7920858 15.8417%
BRANCH_DIRECT_CALL: 776072 1.55214%
BRANCH_INDIRECT_CALL: 194644 0.389288%
BRANCH_RETURN: 993311 1.98662%
BRANCH_OTHER: 0 0%

