Initialize SIGNATURE TABLE
ST_SET: 1
ST_WAY: 256
ST_TAG_BIT: 16
ST_TAG_MASK: ffff

Initialize PATTERN TABLE
PT_SET: 512
PT_WAY: 4
SIG_DELTA_BIT: 7
C_SIG_BIT: 4
C_DELTA_BIT: 4

Initialize PREFETCH FILTER
FILTER_SET: 1024
MANA initialize 
tds: 2 tdm: 2
size MANA SINGLE: 15.5 KB
size MANA NULTIPLE: 0 KB
size HOBPT: 0.703125 KB
size SRQ: 0.14502 KB
size SABs: 0.290039 KB
size prefetch queue: 0.453125 KB
total: 17.0913 KB

*** ChampSim Multicore Out-of-Order Simulator ***

Warmup Instructions: 50000000
Simulation Instructions: 50000000
Number of CPUs: 1
LLC sets: 2048
LLC ways: 16
Off-chip DRAM Size: 4096 MB Channels: 1 Width: 64-bit Data Rate: 3200 MT/s

CPU 0 runs /home/mbaradaran/ChampSim/dpc3_traces/spec_gobmk_002.champsimtrace.xz
CPU 0 L1D next line prefetcher
Heartbeat CPU 0 instructions: 10000001 cycles: 3287524 heartbeat IPC: 3.0418 cumulative IPC: 3.0418 (Simulation time: 0 hr 1 min 37 sec) 
Heartbeat CPU 0 instructions: 20000000 cycles: 6619202 heartbeat IPC: 3.00149 cumulative IPC: 3.02151 (Simulation time: 0 hr 2 min 48 sec) 
Heartbeat CPU 0 instructions: 30000000 cycles: 9957236 heartbeat IPC: 2.99578 cumulative IPC: 3.01288 (Simulation time: 0 hr 3 min 51 sec) 
Heartbeat CPU 0 instructions: 40000000 cycles: 13266679 heartbeat IPC: 3.02166 cumulative IPC: 3.01507 (Simulation time: 0 hr 4 min 55 sec) 
Heartbeat CPU 0 instructions: 50000003 cycles: 16530302 heartbeat IPC: 3.06408 cumulative IPC: 3.02475 (Simulation time: 0 hr 5 min 59 sec) 

Warmup complete CPU 0 instructions: 50000003 cycles: 16530302 (Simulation time: 0 hr 5 min 59 sec) 

Heartbeat CPU 0 instructions: 60000003 cycles: 24061931 heartbeat IPC: 1.32773 cumulative IPC: 1.32773 (Simulation time: 0 hr 6 min 48 sec) 
Heartbeat CPU 0 instructions: 70000001 cycles: 31541777 heartbeat IPC: 1.33693 cumulative IPC: 1.33231 (Simulation time: 0 hr 7 min 36 sec) 
Heartbeat CPU 0 instructions: 80000000 cycles: 38888681 heartbeat IPC: 1.36112 cumulative IPC: 1.34178 (Simulation time: 0 hr 8 min 26 sec) 
Heartbeat CPU 0 instructions: 90000000 cycles: 46541371 heartbeat IPC: 1.30673 cumulative IPC: 1.33284 (Simulation time: 0 hr 9 min 11 sec) 
Heartbeat CPU 0 instructions: 100000003 cycles: 54403909 heartbeat IPC: 1.27185 cumulative IPC: 1.32018 (Simulation time: 0 hr 9 min 59 sec) 
Finished CPU 0 instructions: 50000000 cycles: 37873607 cumulative IPC: 1.32018 (Simulation time: 0 hr 9 min 59 sec) 

ChampSim completed all CPUs

Region of Interest Statistics

CPU 0 cumulative IPC: 1.32018 instructions: 50000000 cycles: 37873607

SHEET
IPC : 1.32018

L1D TOTAL     ACCESS:   17645196  HIT:   17522071  MISS:     123125
L1D LOAD      ACCESS:    6667531  HIT:    6633334  MISS:      34197
L1D RFO       ACCESS:    4388772  HIT:    4346103  MISS:      42669
L1D PREFETCH  ACCESS:    6588893  HIT:    6542634  MISS:      46259
L1D WRITEBACK ACCESS:          0  HIT:          0  MISS:          0
L1D PREFETCH  REQUESTED:    6669853  ISSUED:    6602508  USEFUL:      17194  USELESS:      29247
L1D AVERAGE MISS LATENCY: 50.5226 cycles
L1D

SHEET
L1D-total_access : 17645196
L1D-total_hit : 17522071
L1D-total_miss : 123125
L1D-load_access : 6667531
L1D-load_hit : 6633334
L1D-load_miss : 34197
L1D-rfo_access : 4388772
L1D-rfo_hit : 4346103
L1D-rfo_miss : 42669
L1D-prefetch_access : 6588893
L1D-prefetch_hit : 6542634
L1D-prefetch_miss : 46259
L1D-writeback_access : 0
L1D-writeback_hit : 0
L1D-writeback_miss : 0
L1D-prefetch_requested : 6669853
L1D-prefetch_issued : 6602508
L1D-prefetch_useful : 17194
L1D-prefetch_useless : 29247
L1D-Avg_miss_latency : 50.5226
L1D-Morteza_fill_l2_prefetches : 0

L1I TOTAL     ACCESS:   22171001  HIT:   21309011  MISS:     861990
L1I LOAD      ACCESS:    8833063  HIT:    8645841  MISS:     187222
L1I RFO       ACCESS:          0  HIT:          0  MISS:          0
L1I PREFETCH  ACCESS:   13337938  HIT:   12663170  MISS:     674768
L1I WRITEBACK ACCESS:          0  HIT:          0  MISS:          0
L1I PREFETCH  REQUESTED:   15478171  ISSUED:   14353567  USEFUL:     438326  USELESS:     236402
L1I AVERAGE MISS LATENCY: 14.362 cycles
L1I

SHEET
L1I-total_access : 22171001
L1I-total_hit : 21309011
L1I-total_miss : 861990
L1I-load_access : 8833063
L1I-load_hit : 8645841
L1I-load_miss : 187222
L1I-rfo_access : 0
L1I-rfo_hit : 0
L1I-rfo_miss : 0
L1I-prefetch_access : 13337938
L1I-prefetch_hit : 12663170
L1I-prefetch_miss : 674768
L1I-writeback_access : 0
L1I-writeback_hit : 0
L1I-writeback_miss : 0
L1I-prefetch_requested : 15478171
L1I-prefetch_issued : 14353567
L1I-prefetch_useful : 438326
L1I-prefetch_useless : 236402
L1I-Avg_miss_latency : 14.362
L1I-Morteza_fill_l2_prefetches : 0

L2C TOTAL     ACCESS:    1507367  HIT:    1469886  MISS:      37481
L2C LOAD      ACCESS:     193784  HIT:     179927  MISS:      13857
L2C RFO       ACCESS:      42552  HIT:      39803  MISS:       2749
L2C PREFETCH  ACCESS:    1196825  HIT:    1176085  MISS:      20740
L2C WRITEBACK ACCESS:      74206  HIT:      74071  MISS:        135
L2C PREFETCH  REQUESTED:     845234  ISSUED:     845221  USEFUL:       2229  USELESS:      18852
L2C AVERAGE MISS LATENCY: 126.196 cycles
L2C

SHEET
L2C-total_access : 1507367
L2C-total_hit : 1469886
L2C-total_miss : 37481
L2C-load_access : 193784
L2C-load_hit : 179927
L2C-load_miss : 13857
L2C-rfo_access : 42552
L2C-rfo_hit : 39803
L2C-rfo_miss : 2749
L2C-prefetch_access : 1196825
L2C-prefetch_hit : 1176085
L2C-prefetch_miss : 20740
L2C-writeback_access : 74206
L2C-writeback_hit : 74071
L2C-writeback_miss : 135
L2C-prefetch_requested : 845234
L2C-prefetch_issued : 845221
L2C-prefetch_useful : 2229
L2C-prefetch_useless : 18852
L2C-Avg_miss_latency : 126.196
L2C-Morteza_fill_l2_prefetches : 453314

LLC TOTAL     ACCESS:     119822  HIT:      88313  MISS:      31509
LLC LOAD      ACCESS:      13857  HIT:       5110  MISS:       8747
LLC RFO       ACCESS:       2749  HIT:       1139  MISS:       1610
LLC PREFETCH  ACCESS:      85215  HIT:      64608  MISS:      20607
LLC WRITEBACK ACCESS:      18001  HIT:      17456  MISS:        545
LLC PREFETCH  REQUESTED:          0  ISSUED:          0  USEFUL:       2171  USELESS:      18128
LLC AVERAGE MISS LATENCY: 184.282 cycles
LLC

SHEET
LLC-total_access : 119822
LLC-total_hit : 88313
LLC-total_miss : 31509
LLC-load_access : 13857
LLC-load_hit : 5110
LLC-load_miss : 8747
LLC-rfo_access : 2749
LLC-rfo_hit : 1139
LLC-rfo_miss : 1610
LLC-prefetch_access : 85215
LLC-prefetch_hit : 64608
LLC-prefetch_miss : 20607
LLC-writeback_access : 18001
LLC-writeback_hit : 17456
LLC-writeback_miss : 545
LLC-prefetch_requested : 0
LLC-prefetch_issued : 0
LLC-prefetch_useful : 2171
LLC-prefetch_useless : 18128
LLC-Avg_miss_latency : 184.282
LLC-Morteza_fill_l2_prefetches : 52540

Major fault: 0 Minor fault: 2776



Printing Logs
statHeadFound: 1166788
statHeadMissing: 656828
statStreamBufferHit: 11008999
statPrefetchEntryFound: 6653679
statCompactorMatch: 11410035
statStreamTrackerLookup: 12832615
statRecord: 1422580
statGetPointer: 1823616
statEnqueuePrefetch: 27157502
statPrefetchQueueIsFull: 433643
StreamBufferHitRate: 0.857892
Regions' size: 3188
next_region_correct: 769084
next_region_wrong: 650290
next_region_correct_prediction: 0.541847
statStreamBufferLookups: 923948280
statL1iLookups: 217260016
statCompactorLookups: 461974140
morteza: start

SHEET
mana_table_access_counter : 8509884
hobp_table_access_counter : 20072064
sab_access_counter : 17662678
srq_access_counter : 13034755

morteza: end
CPU 0 L1D next line prefetcher final stats

DRAM Statistics
 CHANNEL 0
 RQ ROW_BUFFER_HIT:       2531  ROW_BUFFER_MISS:      28433
 DBUS_CONGESTED:      15526
 WQ ROW_BUFFER_HIT:        729  ROW_BUFFER_MISS:      12608  FULL:          0

 AVG_CONGESTED_CYCLE: 4

CPU 0 Branch Prediction Accuracy: 93.9974% MPKI: 10.2447 Average ROB Occupancy at Mispredict: 39.3356

Branch types
NOT_BRANCH: 41466058 82.9321%
BRANCH_DIRECT_JUMP: 464313 0.928626%
BRANCH_INDIRECT: 32 6.4e-05%
BRANCH_CONDITIONAL: 7069454 14.1389%
BRANCH_DIRECT_CALL: 499587 0.999174%
BRANCH_INDIRECT_CALL: 342 0.000684%
BRANCH_RETURN: 499906 0.999812%
BRANCH_OTHER: 0 0%

