Initialize SIGNATURE TABLE
ST_SET: 1
ST_WAY: 256
ST_TAG_BIT: 16
ST_TAG_MASK: ffff

Initialize PATTERN TABLE
PT_SET: 512
PT_WAY: 4
SIG_DELTA_BIT: 7
C_SIG_BIT: 4
C_DELTA_BIT: 4

Initialize PREFETCH FILTER
FILTER_SET: 1024
MANA initialize 
tds: 2 tdm: 2
size MANA SINGLE: 15.5 KB
size MANA NULTIPLE: 0 KB
size HOBPT: 0.703125 KB
size SRQ: 0.14502 KB
size SABs: 0.290039 KB
size prefetch queue: 0.453125 KB
total: 17.0913 KB

*** ChampSim Multicore Out-of-Order Simulator ***

Warmup Instructions: 50000000
Simulation Instructions: 50000000
Number of CPUs: 1
LLC sets: 2048
LLC ways: 16
Off-chip DRAM Size: 4096 MB Channels: 1 Width: 64-bit Data Rate: 3200 MT/s

CPU 0 runs /home/mbaradaran/ChampSim/dpc3_traces/spec_gcc_002.champsimtrace.xz
CPU 0 L1D next line prefetcher
Heartbeat CPU 0 instructions: 10000002 cycles: 3564973 heartbeat IPC: 2.80507 cumulative IPC: 2.80507 (Simulation time: 0 hr 1 min 24 sec) 
Heartbeat CPU 0 instructions: 20000000 cycles: 7151012 heartbeat IPC: 2.78859 cumulative IPC: 2.79681 (Simulation time: 0 hr 2 min 32 sec) 
Heartbeat CPU 0 instructions: 30000000 cycles: 10832577 heartbeat IPC: 2.71624 cumulative IPC: 2.76942 (Simulation time: 0 hr 3 min 40 sec) 
Heartbeat CPU 0 instructions: 40000000 cycles: 14381677 heartbeat IPC: 2.81762 cumulative IPC: 2.78132 (Simulation time: 0 hr 4 min 43 sec) 
Heartbeat CPU 0 instructions: 50000002 cycles: 17875703 heartbeat IPC: 2.86203 cumulative IPC: 2.79709 (Simulation time: 0 hr 5 min 41 sec) 

Warmup complete CPU 0 instructions: 50000002 cycles: 17875703 (Simulation time: 0 hr 5 min 41 sec) 

Heartbeat CPU 0 instructions: 60000001 cycles: 57952113 heartbeat IPC: 0.249523 cumulative IPC: 0.249523 (Simulation time: 0 hr 8 min 4 sec) 
Heartbeat CPU 0 instructions: 70000001 cycles: 90072317 heartbeat IPC: 0.311331 cumulative IPC: 0.277021 (Simulation time: 0 hr 10 min 8 sec) 
Heartbeat CPU 0 instructions: 80000002 cycles: 139302878 heartbeat IPC: 0.203126 cumulative IPC: 0.247062 (Simulation time: 0 hr 12 min 49 sec) 
Heartbeat CPU 0 instructions: 90000001 cycles: 184134761 heartbeat IPC: 0.223056 cumulative IPC: 0.240588 (Simulation time: 0 hr 15 min 20 sec) 
Heartbeat CPU 0 instructions: 100000000 cycles: 216191323 heartbeat IPC: 0.311949 cumulative IPC: 0.252123 (Simulation time: 0 hr 17 min 21 sec) 
Finished CPU 0 instructions: 50000002 cycles: 198316040 cumulative IPC: 0.252123 (Simulation time: 0 hr 17 min 21 sec) 

ChampSim completed all CPUs

Region of Interest Statistics

CPU 0 cumulative IPC: 0.252123 instructions: 50000002 cycles: 198316040

SHEET
IPC : 0.252123

L1D TOTAL     ACCESS:   18298420  HIT:   13064731  MISS:    5233689
L1D LOAD      ACCESS:    6391099  HIT:    5332169  MISS:    1058930
L1D RFO       ACCESS:    7031296  HIT:    3430535  MISS:    3600761
L1D PREFETCH  ACCESS:    4876025  HIT:    4302027  MISS:     573998
L1D WRITEBACK ACCESS:          0  HIT:          0  MISS:          0
L1D PREFETCH  REQUESTED:    6411609  ISSUED:    6342182  USEFUL:     414231  USELESS:     159983
L1D AVERAGE MISS LATENCY: 334.381 cycles
L1D

SHEET
L1D-total_access : 18298420
L1D-total_hit : 13064731
L1D-total_miss : 5233689
L1D-load_access : 6391099
L1D-load_hit : 5332169
L1D-load_miss : 1058930
L1D-rfo_access : 7031296
L1D-rfo_hit : 3430535
L1D-rfo_miss : 3600761
L1D-prefetch_access : 4876025
L1D-prefetch_hit : 4302027
L1D-prefetch_miss : 573998
L1D-writeback_access : 0
L1D-writeback_hit : 0
L1D-writeback_miss : 0
L1D-prefetch_requested : 6411609
L1D-prefetch_issued : 6342182
L1D-prefetch_useful : 414231
L1D-prefetch_useless : 159983
L1D-Avg_miss_latency : 334.381
L1D-Morteza_fill_l2_prefetches : 0

L1I TOTAL     ACCESS:   17145344  HIT:   16276156  MISS:     869188
L1I LOAD      ACCESS:   12080518  HIT:   11883355  MISS:     197163
L1I RFO       ACCESS:          0  HIT:          0  MISS:          0
L1I PREFETCH  ACCESS:    5064826  HIT:    4392801  MISS:     672025
L1I WRITEBACK ACCESS:          0  HIT:          0  MISS:          0
L1I PREFETCH  REQUESTED:    6317900  ISSUED:    5476584  USEFUL:     430670  USELESS:     241308
L1I AVERAGE MISS LATENCY: 65.6912 cycles
L1I

SHEET
L1I-total_access : 17145344
L1I-total_hit : 16276156
L1I-total_miss : 869188
L1I-load_access : 12080518
L1I-load_hit : 11883355
L1I-load_miss : 197163
L1I-rfo_access : 0
L1I-rfo_hit : 0
L1I-rfo_miss : 0
L1I-prefetch_access : 5064826
L1I-prefetch_hit : 4392801
L1I-prefetch_miss : 672025
L1I-writeback_access : 0
L1I-writeback_hit : 0
L1I-writeback_miss : 0
L1I-prefetch_requested : 6317900
L1I-prefetch_issued : 5476584
L1I-prefetch_useful : 430670
L1I-prefetch_useless : 241308
L1I-Avg_miss_latency : 65.6912
L1I-Morteza_fill_l2_prefetches : 0

L2C TOTAL     ACCESS:   10209052  HIT:    4908726  MISS:    5300326
L2C LOAD      ACCESS:     405326  HIT:     191961  MISS:     213365
L2C RFO       ACCESS:    3599140  HIT:      12455  MISS:    3586685
L2C PREFETCH  ACCESS:    2479081  HIT:     978934  MISS:    1500147
L2C WRITEBACK ACCESS:    3725505  HIT:    3725376  MISS:        129
L2C PREFETCH  REQUESTED:    3079238  ISSUED:    3079201  USEFUL:      49647  USELESS:    1450726
L2C AVERAGE MISS LATENCY: 345.24 cycles
L2C

SHEET
L2C-total_access : 10209052
L2C-total_hit : 4908726
L2C-total_miss : 5300326
L2C-load_access : 405326
L2C-load_hit : 191961
L2C-load_miss : 213365
L2C-rfo_access : 3599140
L2C-rfo_hit : 12455
L2C-rfo_miss : 3586685
L2C-prefetch_access : 2479081
L2C-prefetch_hit : 978934
L2C-prefetch_miss : 1500147
L2C-writeback_access : 3725505
L2C-writeback_hit : 3725376
L2C-writeback_miss : 129
L2C-prefetch_requested : 3079238
L2C-prefetch_issued : 3079201
L2C-prefetch_useful : 49647
L2C-prefetch_useless : 1450726
L2C-Avg_miss_latency : 345.24
L2C-Morteza_fill_l2_prefetches : 285781

LLC TOTAL     ACCESS:    9958593  HIT:    6105233  MISS:    3853360
LLC LOAD      ACCESS:     213184  HIT:     126940  MISS:      86244
LLC RFO       ACCESS:    3586685  HIT:     597751  MISS:    2988934
LLC PREFETCH  ACCESS:    2492370  HIT:    1714188  MISS:     778182
LLC WRITEBACK ACCESS:    3666354  HIT:    3666354  MISS:          0
LLC PREFETCH  REQUESTED:          0  ISSUED:          0  USEFUL:     152851  USELESS:     620603
LLC AVERAGE MISS LATENCY: 455.921 cycles
LLC

SHEET
LLC-total_access : 9958593
LLC-total_hit : 6105233
LLC-total_miss : 3853360
LLC-load_access : 213184
LLC-load_hit : 126940
LLC-load_miss : 86244
LLC-rfo_access : 3586686
LLC-rfo_hit : 597751
LLC-rfo_miss : 2988935
LLC-prefetch_access : 2492370
LLC-prefetch_hit : 1714188
LLC-prefetch_miss : 778182
LLC-writeback_access : 3666354
LLC-writeback_hit : 3666354
LLC-writeback_miss : 0
LLC-prefetch_requested : 0
LLC-prefetch_issued : 0
LLC-prefetch_useful : 152851
LLC-prefetch_useless : 620603
LLC-Avg_miss_latency : 455.921
LLC-Morteza_fill_l2_prefetches : 950174

Major fault: 0 Minor fault: 4152



Printing Logs
statHeadFound: 473986
statHeadMissing: 4550852
statStreamBufferHit: 8084000
statPrefetchEntryFound: 3309099
statCompactorMatch: 12214775
statStreamTrackerLookup: 13108838
statRecord: 894063
statGetPointer: 5024838
statEnqueuePrefetch: 10423340
statPrefetchQueueIsFull: 51182
StreamBufferHitRate: 0.616683
Regions' size: 1446
next_region_correct: 531057
next_region_wrong: 361542
next_region_correct_prediction: 0.594956
statStreamBufferLookups: 943836336
statL1iLookups: 83386720
statCompactorLookups: 471918168
morteza: start

SHEET
mana_table_access_counter : 4254326
hobp_table_access_counter : 27035854
sab_access_counter : 11393099
srq_access_counter : 12236786

morteza: end
CPU 0 L1D next line prefetcher final stats

DRAM Statistics
 CHANNEL 0
 RQ ROW_BUFFER_HIT:    1015657  ROW_BUFFER_MISS:    2834733
 DBUS_CONGESTED:    5533609
 WQ ROW_BUFFER_HIT:     948153  ROW_BUFFER_MISS:    2216755  FULL:          0

 AVG_CONGESTED_CYCLE: 6

CPU 0 Branch Prediction Accuracy: 99.5987% MPKI: 0.82446 Average ROB Occupancy at Mispredict: 120.652

Branch types
NOT_BRANCH: 39726805 79.4536%
BRANCH_DIRECT_JUMP: 391438 0.782876%
BRANCH_INDIRECT: 62076 0.124152%
BRANCH_CONDITIONAL: 8421541 16.8431%
BRANCH_DIRECT_CALL: 672962 1.34592%
BRANCH_INDIRECT_CALL: 26115 0.05223%
BRANCH_RETURN: 699082 1.39816%
BRANCH_OTHER: 0 0%

